geometry optimzed in LAMMPS
_audit_creation_date              2020-11-30 
_audit_creation_method            'lammps2cif' 
_symmetry_space_group_name_H-M    'P1' 
_symmetry_Int_Tables_number       1 
_symmetry_cell_setting            triclinic 
loop_ 
_symmetry_equiv_pos_as_xyz 
  x,y,z 
_cell_length_a                    43.406963453774324 
_cell_length_b                    30.345865317185602 
_cell_length_c                    32.326714982373694 
_cell_angle_alpha                 90.03787136591464 
_cell_angle_beta                  90.46316478406075 
_cell_angle_gamma                 89.76644954385542 
loop_ 
_atom_site_label 
_atom_site_type_symbol 
_atom_site_fract_x 
_atom_site_fract_y 
_atom_site_fract_z 
_atom_site_charge 
O1          O  0.25151638  0.68278934  0.27729896    -0.72790
O2          O  0.24831643  0.75753937  0.18184766    -0.72820
O3          O  0.29416005  0.72052942  0.22766685    -0.72870
O4          O  0.20603691  0.72014046  0.23116082    -0.72920
O5          O  0.20680873  0.77981295  0.27114308    -0.72860
O6          O  0.29502952  0.77885702  0.26978272    -0.72830
O7          O  0.25029532  0.81687276  0.22252364    -0.72810
O8          O  0.25209840  0.74210574  0.31810117    -0.72870
Ni9        Ni  0.25000710  0.71812993  0.22806363     1.25410
Ni10       Ni  0.25103689  0.78154565  0.27182640     1.25360
C11         C  0.25253268  0.70018589  0.31341227     0.89390
C12         C  0.24870997  0.79946261  0.18643931     0.89320
C13         C  0.30904061  0.74944408  0.24857824     0.89350
C14         C  0.19175000  0.75019559  0.25127888     0.89520
O15         O  0.00035491  0.68349588  0.22230071    -0.72790
O16         O  0.50098841  0.75773354  0.31826126    -0.72820
O17         O  0.45645165  0.72031703  0.27103680    -0.72870
O18         O  0.04461265  0.72091825  0.26955312    -0.72920
O19         O  0.04358479  0.78208073  0.23117545    -0.72860
O20         O  0.45541813  0.77830754  0.22856939    -0.72830
O21         O  0.99799373  0.81728660  0.27784649    -0.72810
O22         O  0.50037681  0.74315711  0.18198091    -0.72870
Ni23       Ni  0.50062593  0.71848883  0.27175740     1.25410
Ni24       Ni  0.49937255  0.78234934  0.22844658     1.25360
C25         C  0.50027301  0.70118923  0.18632725     0.89390
C26         C  0.49920794  0.79959267  0.31376025     0.89320
C27         C  0.44148820  0.74892086  0.24967034     0.89350
C28         C  0.05852949  0.75177228  0.25037190     0.89520
O29         O  0.25098682  0.24295480  0.81849084    -0.72790
O30         O  0.25043931  0.31670161  0.72227441    -0.72820
O31         O  0.20636498  0.28046493  0.77062212    -0.72870
O32         O  0.29449921  0.27920329  0.76989455    -0.72920
O33         O  0.29374260  0.21858534  0.73081465    -0.72860
O34         O  0.20570121  0.22127637  0.72995318    -0.72830
O35         O  0.24987246  0.25679399  0.68223458    -0.72810
O36         O  0.24905281  0.18311052  0.77836837    -0.72870
Ni37       Ni  0.25055485  0.28194846  0.77179458     1.25410
Ni38       Ni  0.24960952  0.21783328  0.72889490     1.25360
C39         C  0.25001126  0.20100629  0.81421474     0.89390
C40         C  0.25014999  0.29879379  0.68639305     0.89320
C41         C  0.19140276  0.25112313  0.75028337     0.89350
C42         C  0.30860844  0.24866188  0.75024214     0.89520
O43         O  0.00104693  0.18302759  0.72148098    -0.72790
O44         O  0.00024119  0.25698795  0.81740185    -0.72820
O45         O  0.45646809  0.21891034  0.76915775    -0.72870
O46         O  0.04456108  0.22090111  0.76938391    -0.72920
O47         O  0.04350773  0.28127249  0.72991092    -0.72860
O48         O  0.45545037  0.27878716  0.72921861    -0.72830
O49         O  0.99872602  0.31684027  0.77743490    -0.72810
O50         O  0.99965441  0.24284090  0.68134559    -0.72870
Ni51       Ni  0.00060838  0.21786426  0.77083459     1.25410
Ni52       Ni  0.99935934  0.28203293  0.72798016     1.25360
C53         C  0.00027846  0.20084517  0.68562073     0.89390
C54         C  0.99921355  0.29898892  0.81331627     0.89320
C55         C  0.44144041  0.24860597  0.74922779     0.89350
C56         C  0.05844201  0.25141436  0.74969408     0.89520
O57         O  0.24945818  0.68319226  0.72275657    -0.72790
O58         O  0.25233562  0.75813883  0.81817649    -0.72980
O59         O  0.20663085  0.72146279  0.77218458    -0.72870
O60         O  0.29488315  0.72030722  0.76946066    -0.72920
O61         O  0.29410917  0.77928097  0.72824726    -0.72860
O62         O  0.20581183  0.77992623  0.73030232    -0.72830
O63         O  0.25080016  0.81733373  0.77727270    -0.72810
O64         O  0.24864885  0.74239942  0.68193463    -0.72870
Ni65       Ni  0.25083005  0.71862523  0.77205745     1.25410
Ni66       Ni  0.24986370  0.78187817  0.72802844     1.25360
C67         C  0.24830086  0.70050503  0.68659846     0.89390
C68         C  0.25213570  0.80002332  0.81339948     0.89320
C69         C  0.19175498  0.75065310  0.75141146     0.89350
C70         C  0.30899611  0.74983026  0.74871079     0.89520
O71         O  0.49986841  0.68303435  0.77784468    -0.72790
O72         O  0.00130264  0.75742265  0.68231759    -0.72820
O73         O  0.04464663  0.71988046  0.73086372    -0.72870
O74         O  0.45632353  0.72117446  0.72861878    -0.72920
O75         O  0.45628513  0.77895897  0.77138277    -0.72860
O76         O  0.04458532  0.77991426  0.77081823    -0.72830
O77         O  0.49971103  0.81685874  0.72290368    -0.72810
O78         O  0.00153390  0.74243004  0.81859849    -0.72870
Ni79       Ni  0.00048834  0.71821590  0.72851037     1.25410
Ni80       Ni  0.50045985  0.78170542  0.77234361     1.25360
C81         C  0.00113068  0.70055426  0.81388084     0.89390
C82         C  0.00088210  0.79933011  0.68684797     0.89320
C83         C  0.05909432  0.74990275  0.75093516     0.89350
C84         C  0.44181913  0.75012447  0.74984546     0.89520
C85         C  0.25310863  0.90493904  0.96248821     0.04770
C86         C  0.25049638  0.88205954  0.99982641    -0.11380
C87         C  0.24713411  0.90471340  0.03724383     0.02270
C88         C  0.24562329  0.95095777  0.03689485    -0.09910
C89         C  0.24955924  0.97534277  0.99993342     0.04760
C90         C  0.25366720  0.95116041  0.96288628    -0.09330
H91         H  0.25101217  0.84636751  0.99971270     0.10350
H92         H  0.24095250  0.96699024  0.06592938     0.07880
H93         H  0.25781211  0.96732105  0.93380267     0.07730
C94         C  0.25156291  0.09564636  0.03776314     0.04770
C95         C  0.25107736  0.11850630  0.00026620    -0.11380
C96         C  0.24948423  0.09588386  0.96270891     0.02270
C97         C  0.24773711  0.04971740  0.96271226    -0.09910
C98         C  0.24966909  0.02526970  0.00004193     0.04760
C99         C  0.25192315  0.04940932  0.03749867    -0.09330
H100        H  0.25171489  0.15422135  0.00030063     0.10350
H101        H  0.24513911  0.03379940  0.93309311     0.07880
H102        H  0.25369427  0.03317758  0.06704143     0.07730
C103        C  0.24875433  0.40477118  0.46192573     0.04770
C104        C  0.25113965  0.38183104  0.49925986    -0.11380
C105        C  0.25107718  0.40417780  0.53713007     0.02270
C106        C  0.25091150  0.45053716  0.53716747    -0.09910
C107        C  0.24901034  0.47491886  0.49980309     0.04760
C108        C  0.24698374  0.45087212  0.46235907    -0.09330
H109        H  0.25294442  0.34620294  0.49876873     0.10350
H110        H  0.25204137  0.46686209  0.56671975     0.07880
H111        H  0.24341959  0.46713460  0.43304355     0.07730
C112        C  0.24680784  0.59541146  0.53698387     0.04770
C113        C  0.25163517  0.61787179  0.49973737    -0.11380
C114        C  0.25467743  0.59491515  0.46243171     0.02270
C115        C  0.25488240  0.54868294  0.46294371    -0.09910
C116        C  0.24927488  0.52476731  0.49970837     0.04760
C117        C  0.24433542  0.54925615  0.53635447    -0.09330
H118        H  0.25281093  0.65349273  0.49965619     0.10350
H119        H  0.25981866  0.53218800  0.43418504     0.07880
H120        H  0.23821937  0.53322278  0.56485176     0.07730
C121        C  0.49650004  0.90382360  0.46235933     0.04770
C122        C  0.49834749  0.88098602  0.49970252    -0.11380
C123        C  0.50122748  0.90370299  0.53720269     0.02270
C124        C  0.00263667  0.94995573  0.53676628    -0.09910
C125        C  0.99909516  0.97431234  0.49958682     0.04760
C126        C  0.99572922  0.94996090  0.46237002    -0.09330
H127        H  0.49750034  0.84530355  0.49934778     0.10350
H128        H  0.00717399  0.96602041  0.56588571     0.07880
H129        H  0.99299238  0.96569646  0.43271456     0.07730
C130        C  0.99995817  0.09467593  0.53752533     0.04770
C131        C  0.99827071  0.04852681  0.53719122    -0.11380
C132        C  0.99963349  0.02428471  0.49970651     0.02270
C133        C  0.00112489  0.04872237  0.46239276    -0.09910
C134        C  0.00164616  0.09499189  0.46244656     0.04760
C135        C  0.00210207  0.11744755  0.50018876    -0.09330
H136        H  0.99512299  0.03257201  0.56661269     0.10350
H137        H  0.00144750  0.03275342  0.43269165     0.07880
H138        H  0.00387978  0.15306524  0.50055026     0.07730
C139        C  0.99502058  0.40501269  0.96249004     0.04770
C140        C  0.99840137  0.45101759  0.96220789    -0.11380
C141        C  0.00122790  0.47545311  0.99946050     0.02270
C142        C  0.00295934  0.45126269  0.03688877    -0.09910
C143        C  0.99809312  0.40553753  0.03773627     0.04760
C144        C  0.99258886  0.38334716  0.00046279    -0.09330
H145        H  0.99943730  0.46671273  0.93248004     0.10350
H146        H  0.00891376  0.46713009  0.06566914     0.07880
H147        H  0.98754335  0.34842523  0.00084057     0.07730
C148        C  0.50186492  0.59605205  0.03707908     0.04770
C149        C  0.50478305  0.61863657  0.99961553    -0.11380
C150        C  0.50559504  0.59573644  0.96219401     0.02270
C151        C  0.00533013  0.54958784  0.96222252    -0.09910
C152        C  0.00272362  0.52535953  0.99946391     0.04760
C153        C  0.00017563  0.54980633  0.03672207    -0.09330
H154        H  0.50584793  0.65431091  0.99941156     0.10350
H155        H  0.00724304  0.53375496  0.93254679     0.07880
H156        H  0.99594832  0.53380619  0.06587493     0.07730
O157        O  0.25135265  0.18260359  0.22320624    -0.72790
O158        O  0.24933606  0.25802895  0.31814745    -0.72820
O159        O  0.20622289  0.21984611  0.27003104    -0.72870
O160        O  0.29452856  0.22133173  0.27203780    -0.72920
O161        O  0.29416311  0.27857258  0.22868570    -0.72860
O162        O  0.20586542  0.27958800  0.22976157    -0.72830
O163        O  0.25077437  0.31704290  0.27703663    -0.72810
O164        O  0.24918554  0.24162601  0.18208166    -0.72870
Ni165      Ni  0.25039689  0.21829760  0.27228287     1.25410
Ni166      Ni  0.25000900  0.28135341  0.22795847     1.25360
C167        C  0.25022670  0.19980128  0.18703239     0.89390
C168        C  0.24973353  0.29987001  0.31319911     0.89320
C169        C  0.19156161  0.24978906  0.24995519     0.89350
C170        C  0.30881519  0.24992015  0.25035604     0.89520
O171        O  0.00089882  0.18317664  0.27757603    -0.72790
O172        O  0.00012298  0.25823488  0.18254526    -0.72820
O173        O  0.04446880  0.22122281  0.22983515    -0.72870
O174        O  0.45618725  0.22065292  0.22957808    -0.72920
O175        O  0.45592657  0.27972074  0.27074056    -0.72860
O176        O  0.04425518  0.27960522  0.27187471    -0.72830
O177        O  0.00002438  0.31745537  0.22338285    -0.72810
O178        O  0.99984297  0.24237810  0.31854259    -0.72870
Ni179      Ni  0.00039256  0.21868682  0.22846797     1.25410
Ni180      Ni  0.00003058  0.28193956  0.27256296     1.25360
C181        C  0.00028524  0.20050161  0.31371425     0.89390
C182        C  0.00024721  0.30014110  0.18720411     0.89320
C183        C  0.05884092  0.25052959  0.25085899     0.89350
C184        C  0.44155828  0.25005963  0.25013137     0.89520
C185        C  0.14167662  0.24943143  0.28785367     0.25230
C186        C  0.15763968  0.25006502  0.25020588    -0.22870
C187        C  0.14094996  0.25113927  0.21281099     0.20140
C188        C  0.10870965  0.25072529  0.21304034     0.25180
C189        C  0.09275201  0.25075596  0.25069541    -0.22820
C190        C  0.10943154  0.25052306  0.28810564     0.20080
F191        F  0.09445987  0.25022517  0.32482799    -0.12780
F192        F  0.15734082  0.24869750  0.32436270    -0.15140
F193        F  0.09303388  0.25121665  0.17651728    -0.15140
F194        F  0.15590265  0.25155188  0.17608499    -0.12780
C195        C  0.39101469  0.24578218  0.21284701     0.25230
C196        C  0.40760362  0.24977272  0.25017249    -0.22870
C197        C  0.39148978  0.25369104  0.28756721     0.20140
C198        C  0.35925050  0.25301738  0.28766909     0.25180
C199        C  0.34270679  0.24981021  0.25029414    -0.22820
C200        C  0.35876426  0.24648852  0.21285961     0.20080
F201        F  0.34317563  0.24300216  0.17642290    -0.12780
F202        F  0.40606307  0.24231838  0.17631526    -0.15140
F203        F  0.34413578  0.25650023  0.32415247    -0.15140
F204        F  0.40699651  0.25718623  0.32406265    -0.12780
C205        C  0.48690912  0.37044095  0.14989166     0.25230
C206        C  0.00086672  0.32850932  0.15004151    -0.22870
C207        C  0.01517247  0.31327559  0.11387393     0.20140
C208        C  0.01519741  0.33901301  0.07817273     0.25180
C209        C  0.99994920  0.38010820  0.07713947    -0.22820
C210        C  0.98609032  0.39577487  0.11365041     0.20080
F211        F  0.47071924  0.43481894  0.11399922    -0.12780
F212        F  0.47295533  0.38621902  0.18433472    -0.15140
F213        F  0.03068613  0.32379099  0.04472252    -0.15140
F214        F  0.02974299  0.27359268  0.11315465    -0.12780
C215        C  0.01939948  0.13517948  0.35370321     0.25230
C216        C  0.99984751  0.17205698  0.35057809    -0.22870
C217        C  0.48020353  0.18238150  0.38348883     0.20140
C218        C  0.48023030  0.15651961  0.41914985     0.25180
C219        C  0.00061515  0.12048760  0.42319743    -0.22820
C220        C  0.02006784  0.10986360  0.38992183     0.20080
F221        F  0.04056233  0.07609380  0.39298881    -0.12780
F222        F  0.03882590  0.12484418  0.32241204    -0.15140
F223        F  0.45993726  0.16642692  0.44957560    -0.15140
F224        F  0.46047045  0.21712435  0.38078180    -0.12780
C225        C  0.22731161  0.31956796  0.38135234     0.25230
C226        C  0.24856975  0.32844483  0.34994574    -0.22870
C227        C  0.26901503  0.36391006  0.35452954     0.20140
C228        C  0.26877723  0.38938138  0.39067192     0.25180
C229        C  0.24780577  0.38000723  0.42244065    -0.22820
C230        C  0.22674983  0.34533679  0.41712270     0.20080
F231        F  0.20549476  0.33657042  0.44656952    -0.12780
F232        F  0.20677197  0.28621210  0.37712765    -0.15140
F233        F  0.28988929  0.42192863  0.39540798    -0.15140
F234        F  0.29016563  0.37250962  0.32491253    -0.12780
C235        C  0.27257431  0.11287120  0.10876749     0.25230
C236        C  0.25069657  0.12059737  0.07718594    -0.22870
C237        C  0.22800977  0.15323005  0.08299060     0.20140
C238        C  0.22780677  0.17863770  0.11897784     0.25180
C239        C  0.24985126  0.17132028  0.15021936    -0.22820
C240        C  0.27199597  0.13789417  0.14520357     0.20080
F241        F  0.29389053  0.13090613  0.17473607    -0.12780
F242        F  0.29518949  0.08236044  0.10367148    -0.15140
F243        F  0.20574178  0.21005869  0.12362619    -0.15140
F244        F  0.20578465  0.16021383  0.05388863    -0.12780
C245        C  0.48449316  0.86637944  0.64705571     0.25230
C246        C  0.50210604  0.82753165  0.64973218    -0.22870
C247        C  0.02064739  0.81517155  0.61618387     0.20140
C248        C  0.02126633  0.84081219  0.58034556     0.25180
C249        C  0.50269941  0.87880332  0.57681214    -0.22820
C250        C  0.48450254  0.89155021  0.61076123     0.20080
F251        F  0.46566764  0.92729351  0.60823655    -0.12780
F252        F  0.46615432  0.87887593  0.67884913    -0.15140
F253        F  0.04031609  0.82863292  0.54920084    -0.15140
F254        F  0.03863626  0.77851419  0.61833053    -0.12780
C255        C  0.48099390  0.61546254  0.89439552     0.25230
C256        C  0.50545621  0.62049095  0.92282422    -0.22870
C257        C  0.02876920  0.65112533  0.91456933     0.20140
C258        C  0.02735087  0.67697553  0.87885155     0.25180
C259        C  0.50279710  0.67224697  0.85067918    -0.22820
C260        C  0.47976925  0.64105507  0.85839982     0.20080
F261        F  0.45544891  0.63682908  0.83203049    -0.12780
F262        F  0.45766450  0.58711308  0.90239883    -0.15140
F263        F  0.05016532  0.70630673  0.87145072    -0.15140
F264        F  0.05295051  0.65583760  0.94108684    -0.12780
C265        C  0.14142610  0.74904421  0.71380384     0.25230
C266        C  0.15786883  0.75035958  0.75139917    -0.22870
C267        C  0.14170560  0.75150023  0.78883698     0.20140
C268        C  0.10946359  0.75214324  0.78865586     0.25180
C269        C  0.09300616  0.74998485  0.75110034    -0.22820
C270        C  0.10919563  0.74811868  0.71367927     0.20080
F271        F  0.09376100  0.74654466  0.67700625    -0.12780
F272        F  0.15663231  0.74772225  0.67727044    -0.15140
F273        F  0.09429608  0.75404110  0.82516562    -0.15140
F274        F  0.15716673  0.75307071  0.82548704    -0.12780
C275        C  0.35926377  0.75315718  0.71158417     0.25230
C276        C  0.34296014  0.75009944  0.74885068    -0.22870
C277        C  0.35936596  0.74720727  0.78643938     0.20140
C278        C  0.39160677  0.74797416  0.78679536     0.25180
C279        C  0.40789201  0.75023318  0.74949699    -0.22820
C280        C  0.39153284  0.75250288  0.71186956     0.20080
F281        F  0.40684850  0.75501254  0.67548994    -0.12780
F282        F  0.34392640  0.75566719  0.67488285    -0.15140
F283        F  0.40696549  0.74547097  0.82348725    -0.15140
F284        F  0.34412650  0.74461187  0.82287281    -0.12780
C285        C  0.27441606  0.81880871  0.88250246     0.25230
C286        C  0.25358627  0.82855617  0.85026954    -0.22870
C287        C  0.23370619  0.86493599  0.85410999     0.20140
C288        C  0.23398197  0.89037114  0.89026217     0.25180
C289        C  0.25450989  0.88021046  0.92289314    -0.22820
C290        C  0.27509041  0.84463965  0.91831478     0.20080
F291        F  0.29598085  0.83501083  0.94849907    -0.12780
F292        F  0.29442413  0.78452053  0.87906273    -0.15140
F293        F  0.21319301  0.92364510  0.89415257    -0.15140
F294        F  0.21295187  0.87448271  0.82372882    -0.12780
C295        C  0.22936746  0.68600743  0.61466494     0.25230
C296        C  0.24635666  0.67205705  0.64952304    -0.22870
C297        C  0.26183469  0.63131986  0.64817409     0.20140
C298        C  0.26152392  0.60598137  0.61194835     0.25180
C299        C  0.24505143  0.62038525  0.57662873    -0.22820
C300        C  0.22834141  0.66019498  0.57887387     0.20080
F301        F  0.21073970  0.67410777  0.54647794    -0.12780
F302        F  0.21332707  0.72450988  0.61537872    -0.15140
F303        F  0.27856669  0.56838487  0.61091606    -0.15140
F304        F  0.27852612  0.61698198  0.68126101    -0.12780
C305        C  0.02013308  0.11104752  0.60891393     0.25230
C306        C  0.99893252  0.11984606  0.57679666    -0.22870
C307        C  0.47763942  0.15455022  0.58142846     0.20140
C308        C  0.47817931  0.18088540  0.61687419     0.25180
C309        C  0.99966549  0.17256378  0.64861426    -0.22820
C310        C  0.02034094  0.13705852  0.64472297     0.20080
F311        F  0.04154098  0.12872207  0.67485299    -0.12780
F312        F  0.04142361  0.07845556  0.60488633    -0.15140
F313        F  0.45724763  0.21399529  0.62062692    -0.15140
F314        F  0.45611954  0.16271779  0.55165761    -0.12780
C315        C  0.48167695  0.36670484  0.85128233     0.25230
C316        C  0.99859101  0.32704354  0.85067975    -0.22870
C317        C  0.01469177  0.31389456  0.88643568     0.20140
C318        C  0.01393057  0.33971666  0.92212504     0.25180
C319        C  0.99613631  0.37869931  0.92352070    -0.22820
C320        C  0.48011161  0.39201889  0.88750894     0.20080
F321        F  0.46216512  0.42875425  0.88758227    -0.12780
F322        F  0.46574349  0.38020663  0.81723166    -0.15140
F323        F  0.03138500  0.32696953  0.95506932    -0.15140
F324        F  0.03196724  0.27647954  0.88656598    -0.12780
C325        C  0.14057738  0.21517077  0.73434432     0.25230
C326        C  0.15718803  0.25147920  0.75016237    -0.22870
C327        C  0.14062698  0.28796269  0.76570894     0.20140
C328        C  0.10839788  0.28816807  0.76504412     0.25180
C329        C  0.09220148  0.25178395  0.74957630    -0.22820
C330        C  0.10841473  0.21529477  0.73441839     0.20080
F331        F  0.09301275  0.18002630  0.71888521    -0.12780
F332        F  0.15529984  0.17918662  0.71906122    -0.15140
F333        F  0.09295020  0.32343928  0.78050881    -0.15140
F334        F  0.15547054  0.32362889  0.78138659    -0.12780
C335        C  0.39119122  0.20847662  0.75217829     0.25230
C336        C  0.40745141  0.24837586  0.74946101    -0.22870
C337        C  0.39091065  0.28826768  0.74694249     0.20140
C338        C  0.35875485  0.28828698  0.74747072     0.25180
C339        C  0.34252692  0.24841010  0.74985038    -0.22820
C340        C  0.35897773  0.20848680  0.75198350     0.20080
F341        F  0.34387116  0.16952636  0.75485838    -0.12780
F342        F  0.40643909  0.16937207  0.75420509    -0.15140
F343        F  0.34345891  0.32731912  0.74473793    -0.15140
F344        F  0.40585607  0.32742478  0.74483563    -0.12780
C345        C  0.23047947  0.31630431  0.61568109     0.25230
C346        C  0.24988865  0.32681884  0.64913002    -0.22870
C347        C  0.26912428  0.36384666  0.64640457     0.20140
C348        C  0.26966103  0.38915455  0.61015695     0.25180
C349        C  0.25032774  0.37848989  0.57638960    -0.22820
C350        C  0.23030502  0.34221538  0.58000144     0.20080
F351        F  0.21005980  0.33217495  0.54919399    -0.12780
F352        F  0.21104352  0.28144198  0.61794860    -0.15140
F353        F  0.28990771  0.42300350  0.60762339    -0.15140
F354        F  0.28832805  0.37445439  0.67821494    -0.12780
C355        C  0.22627848  0.14287634  0.85817378     0.25230
C356        C  0.25022799  0.17291685  0.85123919    -0.22870
C357        C  0.27433546  0.17639131  0.88018649     0.20140
C358        C  0.27439637  0.15046594  0.91589408     0.25180
C359        C  0.25009886  0.12106983  0.92348757    -0.22820
C360        C  0.22610777  0.11725943  0.89421344     0.20080
F361        F  0.20198950  0.09000370  0.90127734    -0.12780
F362        F  0.20248161  0.13967281  0.83082894    -0.15140
F363        F  0.29836655  0.15371975  0.94296556    -0.15140
F364        F  0.29811792  0.20435274  0.87343087    -0.12780
C365        C  0.02501687  0.83118189  0.37579079     0.25230
C366        C  0.49866792  0.82777982  0.35064101    -0.22870
C367        C  0.47168011  0.85055731  0.36152325     0.20140
C368        C  0.47094304  0.87601324  0.39768774     0.25180
C369        C  0.49723033  0.87895915  0.42312817    -0.22820
C370        C  0.02433931  0.85673363  0.41175253     0.20080
F371        F  0.05016475  0.85996760  0.43553236    -0.12780
F372        F  0.05143772  0.81000268  0.36527124    -0.15140
F373        F  0.44441101  0.89664668  0.40858032    -0.15140
F374        F  0.44583437  0.84689197  0.33784987    -0.12780
C375        C  0.48079529  0.68419332  0.11534768     0.25230
C376        C  0.49976344  0.67296853  0.14915815    -0.22870
C377        C  0.01835750  0.63503621  0.14686199     0.20140
C378        C  0.01878500  0.60959645  0.11068842     0.25180
C379        C  0.50014098  0.62122369  0.07648963    -0.22820
C380        C  0.48068886  0.65831716  0.07958637     0.20080
F381        F  0.46124954  0.66929533  0.04808866    -0.12780
F382        F  0.46185359  0.71984784  0.11724735    -0.15140
F383        F  0.03836457  0.57468008  0.10852237    -0.15140
F384        F  0.03712614  0.62370713  0.17896973    -0.12780
C385        C  0.10872401  0.78672988  0.26831082     0.25230
C386        C  0.09234206  0.75194625  0.25015742    -0.22870
C387        C  0.10842118  0.71668318  0.23241037     0.20140
C388        C  0.14062044  0.71615890  0.23254224     0.25180
C389        C  0.15744135  0.75076927  0.25117872    -0.22820
C390        C  0.14097517  0.78607901  0.26917545     0.20080
F391        F  0.15592075  0.82016317  0.28757545    -0.12780
F392        F  0.09342947  0.82083980  0.28613165    -0.15140
F393        F  0.15515531  0.68155611  0.21442802    -0.15140
F394        F  0.09284624  0.68304810  0.21417630    -0.12780
C395        C  0.39132286  0.74934181  0.21164515     0.25230
C396        C  0.40764773  0.74817998  0.24934763    -0.22870
C397        C  0.39140184  0.74705561  0.28671688     0.20140
C398        C  0.35919730  0.74798884  0.28640401     0.25180
C399        C  0.34287459  0.74866806  0.24870514    -0.22820
C400        C  0.35910265  0.74887521  0.21131574     0.20080
F401        F  0.34372953  0.74985265  0.17457668    -0.12780
F402        F  0.40662047  0.75016402  0.17517695    -0.15140
F403        F  0.34390457  0.74746188  0.32287600    -0.15140
F404        F  0.40674167  0.74634868  0.32349223    -0.12780
C405        C  0.22768857  0.81663600  0.11611863     0.25230
C406        C  0.24712867  0.82791474  0.14942152    -0.22870
C407        C  0.26535522  0.86595541  0.14661098     0.20140
C408        C  0.26494117  0.89143359  0.11048723     0.25180
C409        C  0.24584795  0.87973935  0.07678767    -0.22820
C410        C  0.22680201  0.84251621  0.08036285     0.20080
F411        F  0.20710261  0.83131821  0.04928868    -0.12780
F412        F  0.20912798  0.78082223  0.11845155    -0.15140
F413        F  0.28426700  0.92637228  0.10778717    -0.15140
F414        F  0.28468019  0.87728793  0.17806648    -0.12780
C415        C  0.27471406  0.68212300  0.38291821     0.25230
C416        C  0.25442674  0.67164469  0.35030281    -0.22870
C417        C  0.23569677  0.63419782  0.35357724     0.20140
C418        C  0.23635689  0.60860915  0.38960231     0.25180
C419        C  0.25623838  0.61953913  0.42271543    -0.22820
C420        C  0.27588403  0.65604739  0.41857307     0.20080
F421        F  0.29632937  0.66642431  0.44902545    -0.12780
F422        F  0.29373324  0.71737629  0.38002180    -0.15140
F423        F  0.21642654  0.57443658  0.39288772    -0.15140
F424        F  0.21559923  0.62368133  0.32274508    -0.12780
O425        O  0.75151638  0.68278933  0.27729896    -0.72790
O426        O  0.74831644  0.75753936  0.18184765    -0.72820
O427        O  0.79416005  0.72052941  0.22766685    -0.72870
O428        O  0.70603691  0.72014046  0.23116082    -0.72920
O429        O  0.70680873  0.77981295  0.27114308    -0.72860
O430        O  0.79502952  0.77885702  0.26978272    -0.72830
O431        O  0.75029532  0.81687276  0.22252364    -0.72810
O432        O  0.75209840  0.74210574  0.31810117    -0.72870
Ni433      Ni  0.75000710  0.71812993  0.22806363     1.25410
Ni434      Ni  0.75103689  0.78154565  0.27182640     1.25360
C435        C  0.75253268  0.70018589  0.31341227     0.89390
C436        C  0.74870998  0.79946260  0.18643931     0.89320
C437        C  0.80904062  0.74944408  0.24857824     0.89350
C438        C  0.69175000  0.75019559  0.25127888     0.89520
O439        O  0.50035491  0.68349588  0.22230071    -0.72790
O440        O  0.00098841  0.75773354  0.31826126    -0.72820
O441        O  0.95645165  0.72031703  0.27103679    -0.72870
O442        O  0.54461264  0.72091825  0.26955312    -0.72920
O443        O  0.54358479  0.78208073  0.23117545    -0.72860
O444        O  0.95541813  0.77830754  0.22856939    -0.72830
O445        O  0.49799373  0.81728660  0.27784649    -0.72810
O446        O  0.00037681  0.74315712  0.18198091    -0.72870
Ni447      Ni  0.00062593  0.71848884  0.27175740     1.25410
Ni448      Ni  0.99937255  0.78234935  0.22844658     1.25360
C449        C  0.00027301  0.70118923  0.18632725     0.89390
C450        C  0.99920794  0.79959267  0.31376025     0.89320
C451        C  0.94148820  0.74892086  0.24967034     0.89350
C452        C  0.55852949  0.75177227  0.25037189     0.89520
O453        O  0.75098683  0.24295480  0.81849085    -0.72790
O454        O  0.75043931  0.31670161  0.72227441    -0.72820
O455        O  0.70636498  0.28046493  0.77062212    -0.72870
O456        O  0.79449921  0.27920329  0.76989455    -0.72920
O457        O  0.79374260  0.21858535  0.73081466    -0.72860
O458        O  0.70570121  0.22127637  0.72995319    -0.72830
O459        O  0.74987245  0.25679400  0.68223458    -0.72810
O460        O  0.74905282  0.18311052  0.77836837    -0.72870
Ni461      Ni  0.75055485  0.28194846  0.77179458     1.25410
Ni462      Ni  0.74960952  0.21783329  0.72889490     1.25360
C463        C  0.75001126  0.20100629  0.81421474     0.89390
C464        C  0.75014999  0.29879379  0.68639305     0.89320
C465        C  0.69140276  0.25112313  0.75028337     0.89350
C466        C  0.80860844  0.24866188  0.75024214     0.89520
O467        O  0.50104694  0.18302759  0.72148098    -0.72790
O468        O  0.50024118  0.25698795  0.81740185    -0.72820
O469        O  0.95646809  0.21891034  0.76915776    -0.72870
O470        O  0.54456108  0.22090111  0.76938392    -0.72920
O471        O  0.54350772  0.28127249  0.72991092    -0.72860
O472        O  0.95545037  0.27878717  0.72921862    -0.72830
O473        O  0.49872602  0.31684027  0.77743490    -0.72810
O474        O  0.49965442  0.24284090  0.68134559    -0.72870
Ni475      Ni  0.50060838  0.21786426  0.77083459     1.25410
Ni476      Ni  0.49935934  0.28203293  0.72798016     1.25360
C477        C  0.50027847  0.20084517  0.68562073     0.89390
C478        C  0.49921354  0.29898892  0.81331627     0.89320
C479        C  0.94144041  0.24860597  0.74922779     0.89350
C480        C  0.55844201  0.25141437  0.74969409     0.89520
O481        O  0.74945818  0.68319226  0.72275657    -0.72790
O482        O  0.75233562  0.75813883  0.81817649    -0.72980
O483        O  0.70663085  0.72146280  0.77218457    -0.72870
O484        O  0.79488315  0.72030722  0.76946066    -0.72920
O485        O  0.79410918  0.77928098  0.72824726    -0.72860
O486        O  0.70581183  0.77992623  0.73030232    -0.72830
O487        O  0.75080016  0.81733374  0.77727270    -0.72810
O488        O  0.74864885  0.74239942  0.68193463    -0.72870
Ni489      Ni  0.75083005  0.71862523  0.77205745     1.25410
Ni490      Ni  0.74986370  0.78187817  0.72802844     1.25360
C491        C  0.74830086  0.70050503  0.68659846     0.89390
C492        C  0.75213570  0.80002332  0.81339948     0.89320
C493        C  0.69175498  0.75065310  0.75141145     0.89350
C494        C  0.80899611  0.74983026  0.74871079     0.89520
O495        O  0.99986841  0.68303435  0.77784468    -0.72790
O496        O  0.50130263  0.75742265  0.68231759    -0.72820
O497        O  0.54464663  0.71988046  0.73086372    -0.72870
O498        O  0.95632353  0.72117446  0.72861878    -0.72920
O499        O  0.95628513  0.77895897  0.77138277    -0.72860
O500        O  0.54458532  0.77991426  0.77081822    -0.72830
O501        O  0.99971104  0.81685874  0.72290368    -0.72810
O502        O  0.50153390  0.74243004  0.81859849    -0.72870
Ni503      Ni  0.50048834  0.71821590  0.72851037     1.25410
Ni504      Ni  0.00045985  0.78170542  0.77234361     1.25360
C505        C  0.50113068  0.70055426  0.81388084     0.89390
C506        C  0.50088210  0.79933011  0.68684797     0.89320
C507        C  0.55909432  0.74990275  0.75093515     0.89350
C508        C  0.94181913  0.75012447  0.74984546     0.89520
C509        C  0.75310864  0.90493904  0.96248821     0.04770
C510        C  0.75049639  0.88205954  0.99982641    -0.11380
C511        C  0.74713412  0.90471340  0.03724383     0.02270
C512        C  0.74562330  0.95095777  0.03689485    -0.09910
C513        C  0.74955924  0.97534277  0.99993341     0.04760
C514        C  0.75366721  0.95116041  0.96288627    -0.09330
H515        H  0.75101218  0.84636751  0.99971270     0.10350
H516        H  0.74095251  0.96699024  0.06592938     0.07880
H517        H  0.75781211  0.96732105  0.93380267     0.07730
C518        C  0.75156292  0.09564636  0.03776314     0.04770
C519        C  0.75107737  0.11850630  0.00026620    -0.11380
C520        C  0.74948424  0.09588386  0.96270891     0.02270
C521        C  0.74773712  0.04971740  0.96271226    -0.09910
C522        C  0.74966909  0.02526969  0.00004193     0.04760
C523        C  0.75192315  0.04940932  0.03749867    -0.09330
H524        H  0.75171489  0.15422135  0.00030063     0.10350
H525        H  0.74513911  0.03379940  0.93309311     0.07880
H526        H  0.75369427  0.03317757  0.06704143     0.07730
C527        C  0.74875431  0.40477118  0.46192573     0.04770
C528        C  0.75113963  0.38183104  0.49925986    -0.11380
C529        C  0.75107717  0.40417780  0.53713007     0.02270
C530        C  0.75091149  0.45053716  0.53716747    -0.09910
C531        C  0.74901033  0.47491887  0.49980309     0.04760
C532        C  0.74698373  0.45087212  0.46235907    -0.09330
H533        H  0.75294440  0.34620294  0.49876874     0.10350
H534        H  0.75204137  0.46686210  0.56671975     0.07880
H535        H  0.74341958  0.46713460  0.43304355     0.07730
C536        C  0.74680784  0.59541146  0.53698386     0.04770
C537        C  0.75163517  0.61787179  0.49973737    -0.11380
C538        C  0.75467743  0.59491514  0.46243170     0.02270
C539        C  0.75488240  0.54868294  0.46294371    -0.09910
C540        C  0.74927487  0.52476732  0.49970837     0.04760
C541        C  0.74433541  0.54925615  0.53635447    -0.09330
H542        H  0.75281094  0.65349273  0.49965619     0.10350
H543        H  0.75981866  0.53218800  0.43418504     0.07880
H544        H  0.73821937  0.53322279  0.56485176     0.07730
C545        C  0.99650004  0.90382359  0.46235933     0.04770
C546        C  0.99834749  0.88098602  0.49970252    -0.11380
C547        C  0.00122749  0.90370299  0.53720269     0.02270
C548        C  0.50263667  0.94995573  0.53676628    -0.09910
C549        C  0.49909517  0.97431233  0.49958682     0.04760
C550        C  0.49572922  0.94996090  0.46237002    -0.09330
H551        H  0.99750034  0.84530355  0.49934778     0.10350
H552        H  0.50717399  0.96602041  0.56588571     0.07880
H553        H  0.49299239  0.96569646  0.43271456     0.07730
C554        C  0.49995818  0.09467593  0.53752533     0.04770
C555        C  0.49827072  0.04852681  0.53719122    -0.11380
C556        C  0.49963349  0.02428471  0.49970651     0.02270
C557        C  0.50112489  0.04872237  0.46239276    -0.09910
C558        C  0.50164616  0.09499189  0.46244656     0.04760
C559        C  0.50210208  0.11744755  0.50018876    -0.09330
H560        H  0.49512301  0.03257201  0.56661269     0.10350
H561        H  0.50144750  0.03275342  0.43269165     0.07880
H562        H  0.50387980  0.15306524  0.50055026     0.07730
C563        C  0.49502057  0.40501269  0.96249004     0.04770
C564        C  0.49840136  0.45101759  0.96220789    -0.11380
C565        C  0.50122789  0.47545312  0.99946050     0.02270
C566        C  0.50295934  0.45126269  0.03688876    -0.09910
C567        C  0.49809312  0.40553754  0.03773626     0.04760
C568        C  0.49258884  0.38334716  0.00046279    -0.09330
H569        H  0.49943727  0.46671274  0.93248003     0.10350
H570        H  0.50891377  0.46713009  0.06566913     0.07880
H571        H  0.48754332  0.34842523  0.00084057     0.07730
C572        C  0.00186493  0.59605205  0.03707908     0.04770
C573        C  0.00478305  0.61863657  0.99961553    -0.11380
C574        C  0.00559503  0.59573644  0.96219401     0.02270
C575        C  0.50533013  0.54958784  0.96222252    -0.09910
C576        C  0.50272362  0.52535953  0.99946390     0.04760
C577        C  0.50017562  0.54980632  0.03672206    -0.09330
H578        H  0.00584793  0.65431092  0.99941156     0.10350
H579        H  0.50724305  0.53375496  0.93254679     0.07880
H580        H  0.49594830  0.53380618  0.06587492     0.07730
O581        O  0.75135265  0.18260358  0.22320624    -0.72790
O582        O  0.74933606  0.25802895  0.31814745    -0.72820
O583        O  0.70622289  0.21984610  0.27003104    -0.72870
O584        O  0.79452856  0.22133173  0.27203781    -0.72920
O585        O  0.79416311  0.27857258  0.22868570    -0.72860
O586        O  0.70586542  0.27958800  0.22976157    -0.72830
O587        O  0.75077437  0.31704290  0.27703663    -0.72810
O588        O  0.74918554  0.24162601  0.18208166    -0.72870
Ni589      Ni  0.75039689  0.21829760  0.27228287     1.25410
Ni590      Ni  0.75000900  0.28135341  0.22795847     1.25360
C591        C  0.75022670  0.19980128  0.18703239     0.89390
C592        C  0.74973353  0.29987000  0.31319911     0.89320
C593        C  0.69156161  0.24978906  0.24995519     0.89350
C594        C  0.80881519  0.24992015  0.25035604     0.89520
O595        O  0.50089882  0.18317664  0.27757603    -0.72790
O596        O  0.50012298  0.25823488  0.18254526    -0.72820
O597        O  0.54446880  0.22122281  0.22983515    -0.72870
O598        O  0.95618725  0.22065292  0.22957808    -0.72920
O599        O  0.95592657  0.27972073  0.27074057    -0.72860
O600        O  0.54425518  0.27960522  0.27187471    -0.72830
O601        O  0.50002438  0.31745537  0.22338285    -0.72810
O602        O  0.49984297  0.24237810  0.31854259    -0.72870
Ni603      Ni  0.50039256  0.21868682  0.22846797     1.25410
Ni604      Ni  0.50003058  0.28193956  0.27256296     1.25360
C605        C  0.50028524  0.20050161  0.31371425     0.89390
C606        C  0.50024721  0.30014110  0.18720410     0.89320
C607        C  0.55884092  0.25052959  0.25085899     0.89350
C608        C  0.94155828  0.25005962  0.25013137     0.89520
C609        C  0.64167662  0.24943143  0.28785367     0.25230
C610        C  0.65763968  0.25006501  0.25020588    -0.22870
C611        C  0.64094996  0.25113927  0.21281099     0.20140
C612        C  0.60870965  0.25072529  0.21304033     0.25180
C613        C  0.59275201  0.25075596  0.25069541    -0.22820
C614        C  0.60943154  0.25052306  0.28810564     0.20080
F615        F  0.59445987  0.25022516  0.32482799    -0.12780
F616        F  0.65734082  0.24869749  0.32436270    -0.15140
F617        F  0.59303388  0.25121665  0.17651728    -0.15140
F618        F  0.65590265  0.25155188  0.17608499    -0.12780
C619        C  0.89101469  0.24578218  0.21284701     0.25230
C620        C  0.90760362  0.24977272  0.25017250    -0.22870
C621        C  0.89148978  0.25369103  0.28756721     0.20140
C622        C  0.85925050  0.25301737  0.28766909     0.25180
C623        C  0.84270679  0.24981021  0.25029414    -0.22820
C624        C  0.85876426  0.24648852  0.21285961     0.20080
F625        F  0.84317563  0.24300216  0.17642290    -0.12780
F626        F  0.90606307  0.24231838  0.17631526    -0.15140
F627        F  0.84413578  0.25650022  0.32415248    -0.15140
F628        F  0.90699651  0.25718622  0.32406265    -0.12780
C629        C  0.98690910  0.37044094  0.14989165     0.25230
C630        C  0.50086672  0.32850932  0.15004151    -0.22870
C631        C  0.51517246  0.31327558  0.11387392     0.20140
C632        C  0.51519739  0.33901300  0.07817272     0.25180
C633        C  0.49994920  0.38010820  0.07713947    -0.22820
C634        C  0.48609033  0.39577488  0.11365041     0.20080
F635        F  0.97071921  0.43481891  0.11399921    -0.12780
F636        F  0.97295530  0.38621900  0.18433471    -0.15140
F637        F  0.53068610  0.32379097  0.04472250    -0.15140
F638        F  0.52974296  0.27359265  0.11315463    -0.12780
C639        C  0.51939948  0.13517948  0.35370321     0.25230
C640        C  0.49984751  0.17205698  0.35057809    -0.22870
C641        C  0.98020353  0.18238150  0.38348883     0.20140
C642        C  0.98023029  0.15651961  0.41914984     0.25180
C643        C  0.50061516  0.12048760  0.42319743    -0.22820
C644        C  0.52006785  0.10986360  0.38992182     0.20080
F645        F  0.54056234  0.07609379  0.39298880    -0.12780
F646        F  0.53882590  0.12484418  0.32241204    -0.15140
F647        F  0.95993725  0.16642691  0.44957559    -0.15140
F648        F  0.96047044  0.21712435  0.38078179    -0.12780
C649        C  0.72731161  0.31956796  0.38135234     0.25230
C650        C  0.74856975  0.32844483  0.34994574    -0.22870
C651        C  0.76901502  0.36391005  0.35452954     0.20140
C652        C  0.76877722  0.38938138  0.39067193     0.25180
C653        C  0.74780576  0.38000723  0.42244065    -0.22820
C654        C  0.72674982  0.34533679  0.41712270     0.20080
F655        F  0.70549475  0.33657042  0.44656952    -0.12780
F656        F  0.70677196  0.28621209  0.37712765    -0.15140
F657        F  0.78988929  0.42192863  0.39540799    -0.15140
F658        F  0.79016562  0.37250962  0.32491253    -0.12780
C659        C  0.77257431  0.11287120  0.10876749     0.25230
C660        C  0.75069657  0.12059737  0.07718594    -0.22870
C661        C  0.72800977  0.15323006  0.08299060     0.20140
C662        C  0.72780678  0.17863771  0.11897784     0.25180
C663        C  0.74985126  0.17132028  0.15021936    -0.22820
C664        C  0.77199597  0.13789416  0.14520358     0.20080
F665        F  0.79389052  0.13090612  0.17473608    -0.12780
F666        F  0.79518949  0.08236043  0.10367149    -0.15140
F667        F  0.70574179  0.21005870  0.12362618    -0.15140
F668        F  0.70578466  0.16021384  0.05388863    -0.12780
C669        C  0.98449316  0.86637944  0.64705571     0.25230
C670        C  0.00210604  0.82753165  0.64973218    -0.22870
C671        C  0.52064739  0.81517155  0.61618387     0.20140
C672        C  0.52126632  0.84081219  0.58034555     0.25180
C673        C  0.00269941  0.87880332  0.57681215    -0.22820
C674        C  0.98450255  0.89155022  0.61076123     0.20080
F675        F  0.96566764  0.92729352  0.60823655    -0.12780
F676        F  0.96615432  0.87887594  0.67884913    -0.15140
F677        F  0.54031609  0.82863292  0.54920084    -0.15140
F678        F  0.53863626  0.77851420  0.61833053    -0.12780
C679        C  0.98099390  0.61546254  0.89439552     0.25230
C680        C  0.00545621  0.62049095  0.92282422    -0.22870
C681        C  0.52876921  0.65112534  0.91456933     0.20140
C682        C  0.52735087  0.67697554  0.87885156     0.25180
C683        C  0.00279710  0.67224697  0.85067918    -0.22820
C684        C  0.97976924  0.64105507  0.85839983     0.20080
F685        F  0.95544890  0.63682908  0.83203049    -0.12780
F686        F  0.95766449  0.58711308  0.90239883    -0.15140
F687        F  0.55016532  0.70630674  0.87145073    -0.15140
F688        F  0.55295051  0.65583761  0.94108684    -0.12780
C689        C  0.64142610  0.74904421  0.71380384     0.25230
C690        C  0.65786883  0.75035958  0.75139916    -0.22870
C691        C  0.64170560  0.75150023  0.78883698     0.20140
C692        C  0.60946359  0.75214324  0.78865586     0.25180
C693        C  0.59300616  0.74998485  0.75110034    -0.22820
C694        C  0.60919563  0.74811869  0.71367927     0.20080
F695        F  0.59376100  0.74654466  0.67700625    -0.12780
F696        F  0.65663231  0.74772225  0.67727044    -0.15140
F697        F  0.59429608  0.75404110  0.82516561    -0.15140
F698        F  0.65716673  0.75307071  0.82548703    -0.12780
C699        C  0.85926377  0.75315719  0.71158417     0.25230
C700        C  0.84296014  0.75009944  0.74885067    -0.22870
C701        C  0.85936596  0.74720727  0.78643938     0.20140
C702        C  0.89160677  0.74797416  0.78679536     0.25180
C703        C  0.90789201  0.75023319  0.74949699    -0.22820
C704        C  0.89153284  0.75250288  0.71186956     0.20080
F705        F  0.90684850  0.75501254  0.67548994    -0.12780
F706        F  0.84392640  0.75566720  0.67488285    -0.15140
F707        F  0.90696549  0.74547097  0.82348725    -0.15140
F708        F  0.84412650  0.74461186  0.82287281    -0.12780
C709        C  0.77441607  0.81880872  0.88250245     0.25230
C710        C  0.75358627  0.82855617  0.85026954    -0.22870
C711        C  0.73370618  0.86493598  0.85410999     0.20140
C712        C  0.73398197  0.89037114  0.89026218     0.25180
C713        C  0.75450990  0.88021047  0.92289314    -0.22820
C714        C  0.77509043  0.84463966  0.91831478     0.20080
F715        F  0.79598087  0.83501085  0.94849906    -0.12780
F716        F  0.79442415  0.78452055  0.87906272    -0.15140
F717        F  0.71319300  0.92364509  0.89415258    -0.15140
F718        F  0.71295186  0.87448270  0.82372883    -0.12780
C719        C  0.72936747  0.68600743  0.61466493     0.25230
C720        C  0.74635666  0.67205705  0.64952304    -0.22870
C721        C  0.76183469  0.63131986  0.64817409     0.20140
C722        C  0.76152392  0.60598137  0.61194835     0.25180
C723        C  0.74505143  0.62038525  0.57662873    -0.22820
C724        C  0.72834142  0.66019499  0.57887386     0.20080
F725        F  0.71073971  0.67410778  0.54647793    -0.12780
F726        F  0.71332708  0.72450989  0.61537871    -0.15140
F727        F  0.77856668  0.56838486  0.61091607    -0.15140
F728        F  0.77852611  0.61698198  0.68126101    -0.12780
C729        C  0.52013309  0.11104752  0.60891393     0.25230
C730        C  0.49893253  0.11984606  0.57679666    -0.22870
C731        C  0.97763941  0.15455022  0.58142846     0.20140
C732        C  0.97817930  0.18088540  0.61687419     0.25180
C733        C  0.49966550  0.17256378  0.64861426    -0.22820
C734        C  0.52034095  0.13705852  0.64472298     0.20080
F735        F  0.54154099  0.12872207  0.67485299    -0.12780
F736        F  0.54142362  0.07845556  0.60488633    -0.15140
F737        F  0.95724763  0.21399529  0.62062692    -0.15140
F738        F  0.95611953  0.16271780  0.55165762    -0.12780
C739        C  0.98167696  0.36670484  0.85128233     0.25230
C740        C  0.49859100  0.32704354  0.85067975    -0.22870
C741        C  0.51469176  0.31389456  0.88643569     0.20140
C742        C  0.51393055  0.33971667  0.92212504     0.25180
C743        C  0.49613629  0.37869931  0.92352069    -0.22820
C744        C  0.98011163  0.39201889  0.88750894     0.20080
F745        F  0.96216514  0.42875426  0.88758228    -0.12780
F746        F  0.96574351  0.38020663  0.81723167    -0.15140
F747        F  0.53138498  0.32696953  0.95506933    -0.15140
F748        F  0.53196723  0.27647954  0.88656598    -0.12780
C749        C  0.64057738  0.21517077  0.73434433     0.25230
C750        C  0.65718803  0.25147920  0.75016238    -0.22870
C751        C  0.64062698  0.28796269  0.76570894     0.20140
C752        C  0.60839787  0.28816807  0.76504413     0.25180
C753        C  0.59220148  0.25178395  0.74957630    -0.22820
C754        C  0.60841473  0.21529477  0.73441840     0.20080
F755        F  0.59301275  0.18002630  0.71888521    -0.12780
F756        F  0.65529984  0.17918662  0.71906123    -0.15140
F757        F  0.59295020  0.32343928  0.78050881    -0.15140
F758        F  0.65547054  0.32362889  0.78138659    -0.12780
C759        C  0.89119122  0.20847663  0.75217830     0.25230
C760        C  0.90745141  0.24837586  0.74946101    -0.22870
C761        C  0.89091065  0.28826768  0.74694249     0.20140
C762        C  0.85875485  0.28828698  0.74747072     0.25180
C763        C  0.84252692  0.24841011  0.74985038    -0.22820
C764        C  0.85897773  0.20848681  0.75198350     0.20080
F765        F  0.84387116  0.16952637  0.75485838    -0.12780
F766        F  0.90643909  0.16937208  0.75420509    -0.15140
F767        F  0.84345891  0.32731912  0.74473793    -0.15140
F768        F  0.90585607  0.32742479  0.74483563    -0.12780
C769        C  0.73047947  0.31630431  0.61568110     0.25230
C770        C  0.74988864  0.32681884  0.64913002    -0.22870
C771        C  0.76912428  0.36384666  0.64640457     0.20140
C772        C  0.76966102  0.38915456  0.61015695     0.25180
C773        C  0.75032773  0.37848989  0.57638960    -0.22820
C774        C  0.73030501  0.34221538  0.58000145     0.20080
F775        F  0.71005979  0.33217496  0.54919400    -0.12780
F776        F  0.71104351  0.28144198  0.61794861    -0.15140
F777        F  0.78990770  0.42300350  0.60762338    -0.15140
F778        F  0.78832805  0.37445439  0.67821494    -0.12780
C779        C  0.72627849  0.14287634  0.85817378     0.25230
C780        C  0.75022800  0.17291686  0.85123919    -0.22870
C781        C  0.77433547  0.17639132  0.88018649     0.20140
C782        C  0.77439637  0.15046594  0.91589409     0.25180
C783        C  0.75009886  0.12106984  0.92348757    -0.22820
C784        C  0.72610778  0.11725943  0.89421344     0.20080
F785        F  0.70198951  0.09000369  0.90127734    -0.12780
F786        F  0.70248161  0.13967280  0.83082894    -0.15140
F787        F  0.79836655  0.15371976  0.94296557    -0.15140
F788        F  0.79811792  0.20435275  0.87343088    -0.12780
C789        C  0.52501687  0.83118188  0.37579079     0.25230
C790        C  0.99866792  0.82777982  0.35064101    -0.22870
C791        C  0.97168011  0.85055731  0.36152326     0.20140
C792        C  0.97094303  0.87601324  0.39768775     0.25180
C793        C  0.99723033  0.87895915  0.42312817    -0.22820
C794        C  0.52433931  0.85673363  0.41175253     0.20080
F795        F  0.55016476  0.85996760  0.43553236    -0.12780
F796        F  0.55143772  0.81000267  0.36527124    -0.15140
F797        F  0.94441101  0.89664668  0.40858032    -0.15140
F798        F  0.94583437  0.84689197  0.33784987    -0.12780
C799        C  0.98079529  0.68419332  0.11534768     0.25230
C800        C  0.99976344  0.67296854  0.14915815    -0.22870
C801        C  0.51835749  0.63503620  0.14686199     0.20140
C802        C  0.51878499  0.60959644  0.11068842     0.25180
C803        C  0.00014099  0.62122369  0.07648963    -0.22820
C804        C  0.98068886  0.65831715  0.07958637     0.20080
F805        F  0.96124953  0.66929532  0.04808867    -0.12780
F806        F  0.96185359  0.71984783  0.11724735    -0.15140
F807        F  0.53836455  0.57468006  0.10852238    -0.15140
F808        F  0.53712612  0.62370711  0.17896973    -0.12780
C809        C  0.60872401  0.78672988  0.26831081     0.25230
C810        C  0.59234206  0.75194625  0.25015742    -0.22870
C811        C  0.60842118  0.71668317  0.23241037     0.20140
C812        C  0.64062044  0.71615890  0.23254224     0.25180
C813        C  0.65744135  0.75076927  0.25117871    -0.22820
C814        C  0.64097517  0.78607901  0.26917545     0.20080
F815        F  0.65592075  0.82016316  0.28757545    -0.12780
F816        F  0.59342947  0.82083979  0.28613165    -0.15140
F817        F  0.65515531  0.68155610  0.21442801    -0.15140
F818        F  0.59284624  0.68304810  0.21417630    -0.12780
C819        C  0.89132286  0.74934181  0.21164515     0.25230
C820        C  0.90764773  0.74817998  0.24934763    -0.22870
C821        C  0.89140184  0.74705561  0.28671687     0.20140
C822        C  0.85919730  0.74798884  0.28640400     0.25180
C823        C  0.84287459  0.74866805  0.24870513    -0.22820
C824        C  0.85910265  0.74887521  0.21131573     0.20080
F825        F  0.84372953  0.74985264  0.17457668    -0.12780
F826        F  0.90662047  0.75016402  0.17517695    -0.15140
F827        F  0.84390457  0.74746188  0.32287599    -0.15140
F828        F  0.90674167  0.74634868  0.32349223    -0.12780
C829        C  0.72768858  0.81663600  0.11611862     0.25230
C830        C  0.74712867  0.82791474  0.14942152    -0.22870
C831        C  0.76535522  0.86595541  0.14661098     0.20140
C832        C  0.76494118  0.89143359  0.11048722     0.25180
C833        C  0.74584796  0.87973935  0.07678766    -0.22820
C834        C  0.72680202  0.84251620  0.08036285     0.20080
F835        F  0.70710262  0.83131820  0.04928868    -0.12780
F836        F  0.70912799  0.78082223  0.11845154    -0.15140
F837        F  0.78426700  0.92637228  0.10778717    -0.15140
F838        F  0.78468019  0.87728793  0.17806648    -0.12780
C839        C  0.77471406  0.68212299  0.38291820     0.25230
C840        C  0.75442675  0.67164469  0.35030281    -0.22870
C841        C  0.73569678  0.63419781  0.35357724     0.20140
C842        C  0.73635689  0.60860914  0.38960230     0.25180
C843        C  0.75623838  0.61953913  0.42271543    -0.22820
C844        C  0.77588403  0.65604739  0.41857306     0.20080
F845        F  0.79632938  0.66642431  0.44902544    -0.12780
F846        F  0.79373324  0.71737628  0.38002180    -0.15140
F847        F  0.71642654  0.57443658  0.39288772    -0.15140
F848        F  0.71559923  0.62368133  0.32274508    -0.12780
loop_ 
_geom_bond_atom_site_label_1 
_geom_bond_atom_site_label_2 
_geom_bond_distance 
_geom_bond_site_symmetry_2 
_ccdc_geom_bond_type 
O1           Ni9   1.920       .  S
O1           C11   1.281       .  A
O2           Ni9   1.915       .  S
O2           C12   1.281       .  A
O3           Ni9   1.918       .  S
O3           C13   1.281       .  A
O4           Ni9   1.913       .  S
O4           C14   1.281       .  A
O5          Ni10   1.921       .  S
O5           C14   1.282       .  A
O6          Ni10   1.913       .  S
O6           C13   1.280       .  A
O7          Ni10   1.921       .  S
O7           C12   1.282       .  A
O8          Ni10   1.917       .  S
O8           C11   1.281       .  A
Ni9         Ni10   2.388       .  S
C11         C416   1.476       .  S
C12         C406   1.477       .  S
C13         C399   1.469       .  S
C14         C389   1.489       .  S
O15        Ni447   1.919       .  S
O15         C449   1.281       .  A
O16         Ni23   1.917       .  S
O16          C26   1.281       .  A
O17         Ni23   1.918       .  S
O17          C27   1.281       .  A
O18        Ni447   1.913       .  S
O18          C28   1.280       .  A
O19        Ni448   1.920   1_455  S
O19          C28   1.281       .  A
O20         Ni24   1.912       .  S
O20          C27   1.280       .  A
O21        Ni448   1.917       .  S
O21         C450   1.280       .  A
O22         Ni24   1.916       .  S
O22          C25   1.281       .  A
Ni23        O439   1.919       .  S
Ni23        O442   1.913       .  S
Ni23        Ni24   2.392       .  S
Ni24        O443   1.920       .  S
Ni24        O445   1.917       .  S
C25         O439   1.281       .  A
C25         C376   1.475       .  S
C26         O445   1.280       .  A
C26         C366   1.467       .  S
C27         C396   1.469       .  S
C28         C386   1.468       .  S
O29         Ni37   1.919       .  S
O29          C39   1.281       .  A
O30         Ni37   1.918       .  S
O30          C40   1.281       .  A
O31         Ni37   1.919       .  S
O31          C41   1.282       .  A
O32         Ni37   1.910       .  S
O32          C42   1.280       .  A
O33         Ni38   1.916       .  S
O33          C42   1.281       .  A
O34         Ni38   1.909       .  S
O34          C41   1.280       .  A
O35         Ni38   1.917       .  S
O35          C40   1.282       .  A
O36         Ni38   1.916       .  S
O36          C39   1.280       .  A
Ni37        Ni38   2.389       .  S
C39         C356   1.470       .  S
C40         C346   1.475       .  S
C41         C326   1.485       .  S
C42         C339   1.472       .  S
O43         Ni51   1.913       .  S
O43          C53   1.280       .  A
O44         Ni51   1.917       .  S
O44          C54   1.282   1_455  A
O45        Ni475   1.916       .  S
O45          C55   1.281       .  A
O46         Ni51   1.911       .  S
O46          C56   1.279       .  A
O47         Ni52   1.917   1_455  S
O47          C56   1.280       .  A
O48        Ni476   1.910       .  S
O48          C55   1.280       .  A
O49         Ni52   1.916       .  S
O49          C54   1.280       .  A
O50         Ni52   1.920       .  S
O50          C53   1.282   1_655  A
Ni51        O469   1.916   1_455  S
Ni51        Ni52   2.391   1_455  S
Ni52        O472   1.910       .  S
C53         C309   1.472   1_455  S
C54         C316   1.478       .  S
C55         C336   1.475       .  S
C56         C329   1.466       .  S
O57         Ni65   1.923       .  S
O57          C67   1.282       .  A
O58         Ni65   1.913       .  S
O58          C68   1.280       .  A
O59         Ni65   1.920       .  S
O59          C69   1.281       .  A
O60         Ni65   1.916       .  S
O60          C70   1.281       .  A
O61         Ni66   1.922       .  S
O61          C70   1.282       .  A
O62         Ni66   1.915       .  S
O62          C69   1.280       .  A
O63         Ni66   1.921       .  S
O63          C68   1.282       .  A
O64         Ni66   1.912       .  S
O64          C67   1.280       .  A
Ni65        Ni66   2.390       .  S
C67         C296   1.479       .  S
C68         C286   1.474       .  S
C69         C266   1.471       .  S
C70         C276   1.474       .  S
O71        Ni503   1.920       .  S
O71         C505   1.281       .  A
O72         Ni79   1.911       .  S
O72          C82   1.280       .  A
O73         Ni79   1.919       .  S
O73          C83   1.281       .  A
O74        Ni503   1.919       .  S
O74          C84   1.281       .  A
O75         Ni80   1.920       .  S
O75          C84   1.281       .  A
O76        Ni504   1.917       .  S
O76          C83   1.281       .  A
O77         Ni80   1.922       .  S
O77         C506   1.282       .  A
O78        Ni504   1.913       .  S
O78          C81   1.280       .  A
Ni79        O495   1.920   1_455  S
Ni79        O498   1.919   1_455  S
Ni79       Ni504   2.391       .  S
Ni80        O500   1.917       .  S
Ni80        O502   1.913       .  S
Ni80       Ni503   2.391       .  S
C81         O495   1.281   1_455  A
C81         C683   1.469       .  S
C82         O501   1.282   1_455  A
C82         C670   1.476       .  S
C83         C269   1.472       .  S
C84         C279   1.473       .  S
C85         C289   1.485       .  S
C85          C86   1.398       .  A
C85          C90   1.403       .  A
C86          C87   1.399   1_556  A
C86          H91   1.083       .  S
C87         C409   1.488       .  S
C87          C88   1.405       .  A
C88          C89   1.418   1_554  A
C88          H92   1.077       .  S
C89          C98   1.515   1_566  S
C89          C90   1.416       .  A
C90          H93   1.077       .  S
C94         C236   1.483       .  S
C94          C95   1.397       .  A
C94          C99   1.403       .  A
C95          C96   1.396   1_554  A
C95         H100   1.084       .  S
C96         C359   1.481       .  S
C96          C97   1.403       .  A
C97          C98   1.419   1_556  A
C97         H101   1.077       .  S
C98          C99   1.418       .  A
C99         H102   1.077       .  S
C103        C229   1.481       .  S
C103        C104   1.397       .  A
C103        C108   1.401       .  A
C104        C105   1.399       .  A
C104        H109   1.084       .  S
C105        C349   1.490       .  S
C105        C106   1.407       .  A
C106        C107   1.419       .  A
C106        H110   1.077       .  S
C107        C116   1.513       .  S
C107        C108   1.415       .  A
C108        H111   1.079       .  S
C112        C299   1.491       .  S
C112        C113   1.402       .  A
C112        C117   1.405       .  A
C113        C114   1.399       .  A
C113        H118   1.082       .  S
C114        C419   1.488       .  S
C114        C115   1.403       .  A
C115        C116   1.416       .  A
C115        H119   1.078       .  S
C116        C117   1.415       .  A
C117        H120   1.078       .  S
C121        C369   1.476       .  S
C121        C122   1.394       .  A
C121        C550   1.400       .  A
C122        C123   1.399       .  A
C122        H127   1.084       .  S
C123        C249   1.488       .  S
C123        C548   1.405       .  A
C124        C125   1.418   1_455  A
C124        C547   1.405       .  A
C124        H128   1.077       .  S
C125        C132   1.517   1_565  S
C125        C126   1.418       .  A
C126        C545   1.400       .  A
C126        H129   1.077       .  S
C130        C306   1.482       .  S
C130        C131   1.403       .  A
C130        C135   1.395   1_655  A
C131        C132   1.419       .  A
C131        H136   1.077       .  S
C132        C133   1.418   1_655  A
C133        C134   1.404       .  A
C133        H137   1.075       .  S
C134        C219   1.487       .  S
C134        C135   1.397       .  A
C135        H138   1.084       .  S
C139        C319   1.492       .  S
C139        C140   1.404       .  A
C139        C144   1.398   1_556  A
C140        C141   1.419   1_655  A
C140        H145   1.074       .  S
C141        C152   1.516       .  S
C141        C142   1.417   1_556  A
C142        C143   1.405   1_455  A
C142        H146   1.077       .  S
C143        C209   1.491       .  S
C143        C144   1.399       .  A
C144        H147   1.083       .  S
C148        C379   1.487       .  S
C148        C149   1.399   1_554  A
C148        C577   1.406       .  A
C149        C150   1.395       .  A
C149        H154   1.084       .  S
C150        C256   1.478       .  S
C150        C575   1.401       .  A
C151        C152   1.417       .  A
C151        C574   1.401       .  A
C151        H155   1.076       .  S
C152        C153   1.419   1_556  A
C153        C572   1.406       .  A
C153        H156   1.078   1_455  S
O157       Ni165   1.921       .  S
O157        C167   1.281       .  A
O158       Ni165   1.911       .  S
O158        C168   1.280       .  A
O159       Ni165   1.919       .  S
O159        C169   1.281       .  A
O160       Ni165   1.918       .  S
O160        C170   1.281       .  A
O161       Ni166   1.918       .  S
O161        C170   1.281       .  A
O162       Ni166   1.918       .  S
O162        C169   1.281       .  A
O163       Ni166   1.920       .  S
O163        C168   1.281       .  A
O164       Ni166   1.911       .  S
O164        C167   1.280       .  A
Ni165      Ni166   2.391       .  S
C167        C239   1.470       .  S
C168        C226   1.471       .  S
C169        C186   1.473       .  S
C170        C199   1.471       .  S
O171       Ni179   1.919       .  S
O171        C181   1.281       .  A
O172       Ni179   1.910       .  S
O172        C182   1.280       .  A
O173       Ni179   1.915       .  S
O173        C183   1.280       .  A
O174       Ni603   1.920       .  S
O174        C184   1.282       .  A
O175       Ni604   1.916       .  S
O175        C184   1.281       .  A
O176       Ni180   1.921       .  S
O176        C183   1.282       .  A
O177       Ni180   1.921       .  S
O177        C182   1.282       .  A
O178       Ni180   1.911   1_655  S
O178        C181   1.280   1_655  A
Ni179       O598   1.920   1_455  S
Ni179      Ni180   2.390       .  S
Ni180       O599   1.916   1_455  S
C181        C216   1.472   1_455  S
C182        C206   1.479       .  S
C183        C189   1.472       .  S
C184        C196   1.474       .  S
C185        C186   1.405       .  A
C185        C190   1.400       .  A
C185        F192   1.357       .  S
C186        C187   1.405       .  A
C187        C188   1.400       .  A
C187        F194   1.358       .  S
C188        C189   1.405       .  A
C188        F193   1.358       .  S
C189        C190   1.404       .  A
C190        F191   1.358       .  S
C195        C196   1.406       .  A
C195        C200   1.400       .  A
C195        F202   1.358       .  S
C196        C197   1.406       .  A
C197        C198   1.400       .  A
C197        F204   1.358       .  S
C198        C199   1.404       .  A
C198        F203   1.358       .  S
C199        C200   1.405       .  A
C200        F201   1.358       .  S
C205        C630   1.407       .  A
C205        C634   1.402       .  A
C205        F212   1.358       .  S
C206        C207   1.405       .  A
C206        C629   1.407   1_455  A
C207        C208   1.394       .  A
C207        F214   1.358       .  S
C208        C209   1.410   1_455  A
C208        F213   1.358       .  S
C209        C210   1.410       .  A
C210        C629   1.402       .  A
C210        F635   1.357       .  S
F211        C634   1.357       .  S
C215        C216   1.405   1_455  A
C215        C220   1.401       .  A
C215        F222   1.358       .  S
C216        C641   1.403       .  A
C217        C218   1.395       .  A
C217        C640   1.403       .  A
C217        F224   1.358       .  S
C218        C643   1.409       .  A
C218        F223   1.358       .  S
C219        C220   1.409       .  A
C219        C642   1.409   1_455  A
C220        F221   1.357       .  S
C225        C226   1.404       .  A
C225        C230   1.396       .  A
C225        F232   1.358       .  S
C226        C227   1.405       .  A
C227        C228   1.401       .  A
C227        F234   1.358       .  S
C228        C229   1.408       .  A
C228        F233   1.358       .  S
C229        C230   1.406       .  A
C230        F231   1.358       .  S
C235        C236   1.408       .  A
C235        C240   1.401       .  A
C235        F242   1.358       .  S
C236        C237   1.407       .  A
C237        C238   1.395       .  A
C237        F244   1.358       .  S
C238        C239   1.403       .  A
C238        F243   1.358       .  S
C239        C240   1.405       .  A
C240        F241   1.358       .  S
C245        C246   1.405       .  A
C245        C250   1.400       .  A
C245        F252   1.358       .  S
C246        C506   1.476       .  S
C246        C671   1.406       .  A
C247        C248   1.396       .  A
C247        C670   1.406       .  A
C247        F254   1.358       .  S
C248        C673   1.408       .  A
C248        F253   1.358       .  S
C249        C250   1.410       .  A
C249        C672   1.408       .  A
C250        F251   1.358       .  S
C255        C256   1.407       .  A
C255        C260   1.400       .  A
C255        F262   1.358       .  S
C256        C681   1.404       .  A
C257        C258   1.397       .  A
C257        C680   1.404       .  A
C257        F264   1.358       .  S
C258        C683   1.404       .  A
C258        F263   1.357       .  S
C259        C505   1.469       .  S
C259        C260   1.403       .  A
C259        C682   1.404       .  A
C260        F261   1.358       .  S
C265        C266   1.405       .  A
C265        C270   1.399       .  A
C265        F272   1.358       .  S
C266        C267   1.404       .  A
C267        C268   1.400       .  A
C267        F274   1.358       .  S
C268        C269   1.405       .  A
C268        F273   1.357       .  S
C269        C270   1.405       .  A
C270        F271   1.358       .  S
C275        C276   1.405       .  A
C275        C280   1.401       .  A
C275        F282   1.358       .  S
C276        C277   1.406       .  A
C277        C278   1.400       .  A
C277        F284   1.358       .  S
C278        C279   1.404       .  A
C278        F283   1.358       .  S
C279        C280   1.405       .  A
C280        F281   1.358       .  S
C285        C286   1.405       .  A
C285        C290   1.398       .  A
C285        F292   1.358       .  S
C286        C287   1.404       .  A
C287        C288   1.400       .  A
C287        F294   1.358       .  S
C288        C289   1.409       .  A
C288        F293   1.358       .  S
C289        C290   1.407       .  A
C290        F291   1.358       .  S
C295        C296   1.406       .  A
C295        C300   1.397       .  A
C295        F302   1.358       .  S
C296        C297   1.405       .  A
C297        C298   1.401       .  A
C297        F304   1.358       .  S
C298        C299   1.411       .  A
C298        F303   1.358       .  S
C299        C300   1.409       .  A
C300        F301   1.358       .  S
C305        C306   1.407   1_455  A
C305        C310   1.401       .  A
C305        F312   1.358       .  S
C306        C731   1.407       .  A
C307        C308   1.397       .  A
C307        C730   1.407       .  A
C307        F314   1.358       .  S
C308        C733   1.403       .  A
C308        F313   1.358       .  S
C309        C310   1.406   1_655  A
C309        C732   1.403       .  A
C310        F311   1.358       .  S
C315        C320   1.402       .  A
C315        C740   1.407       .  A
C315        F322   1.358       .  S
C316        C317   1.403   1_655  A
C316        C739   1.407       .  A
C317        C318   1.395       .  A
C317        F324   1.358       .  S
C318        C319   1.411   1_455  A
C318        F323   1.358       .  S
C319        C744   1.410       .  A
C320        C743   1.410       .  A
C320        F321   1.357       .  S
C325        C326   1.412       .  A
C325        C330   1.396       .  A
C325        F332   1.358       .  S
C326        C327   1.412       .  A
C327        C328   1.399       .  A
C327        F334   1.358       .  S
C328        C329   1.401       .  A
C328        F333   1.358       .  S
C329        C330   1.400       .  A
C330        F331   1.358       .  S
C335        C336   1.407       .  A
C335        C340   1.398       .  A
C335        F342   1.358       .  S
C336        C337   1.407       .  A
C337        C338   1.396       .  A
C337        F344   1.358       .  S
C338        C339   1.405       .  A
C338        F343   1.358       .  S
C339        C340   1.405       .  A
C340        F341   1.358       .  S
C345        C346   1.403       .  A
C345        C350   1.396       .  A
C345        F352   1.358       .  S
C346        C347   1.406       .  A
C347        C348   1.402       .  A
C347        F354   1.358       .  S
C348        C349   1.410       .  A
C348        F353   1.357       .  S
C349        C350   1.411       .  A
C350        F351   1.358       .  S
C355        C356   1.405       .  A
C355        C360   1.401       .  A
C355        F362   1.358       .  S
C356        C357   1.402       .  A
C357        C358   1.397       .  A
C357        F364   1.358       .  S
C358        C359   1.407       .  A
C358        F363   1.358       .  S
C359        C360   1.407       .  A
C360        F361   1.358       .  S
C365        C370   1.397       .  A
C365        C790   1.402   1_455  A
C365        F372   1.358       .  S
C366        C367   1.405       .  A
C366        C789   1.402       .  A
C367        C368   1.401       .  A
C367        F374   1.358       .  S
C368        C369   1.404       .  A
C368        F373   1.357       .  S
C369        C794   1.405       .  A
C370        C793   1.405   1_455  A
C370        F371   1.358       .  S
C375        C376   1.404       .  A
C375        C380   1.397       .  A
C375        F382   1.358       .  S
C376        C801   1.405       .  A
C377        C378   1.401       .  A
C377        C800   1.405   1_455  A
C377        F384   1.358       .  S
C378        C803   1.409       .  A
C378        F383   1.358       .  S
C379        C380   1.408       .  A
C379        C802   1.409       .  A
C380        F381   1.358       .  S
C385        C386   1.401       .  A
C385        C390   1.400       .  A
C385        F392   1.358       .  S
C386        C387   1.400       .  A
C387        C388   1.398       .  A
C387        F394   1.358       .  S
C388        C389   1.413       .  A
C388        F393   1.358       .  S
C389        C390   1.413       .  A
C390        F391   1.358       .  S
C395        C396   1.405       .  A
C395        C400   1.399       .  A
C395        F402   1.358       .  S
C396        C397   1.404       .  A
C397        C398   1.398       .  A
C397        F404   1.358       .  S
C398        C399   1.405       .  A
C398        F403   1.358       .  S
C399        C400   1.404       .  A
C400        F401   1.358       .  S
C405        C406   1.405       .  A
C405        C410   1.398       .  A
C405        F412   1.358       .  S
C406        C407   1.406       .  A
C407        C408   1.401       .  A
C407        F414   1.358       .  S
C408        C409   1.410       .  A
C408        F413   1.358       .  S
C409        C410   1.408       .  A
C410        F411   1.358       .  S
C415        C416   1.405       .  A
C415        C420   1.399       .  A
C415        F422   1.358       .  S
C416        C417   1.404       .  A
C417        C418   1.400       .  A
C417        F424   1.358       .  S
C418        C419   1.410       .  A
C418        F423   1.358       .  S
C419        C420   1.408       .  A
C420        F421   1.358       .  S
O425       Ni433   1.920       .  S
O425        C435   1.281       .  A
O426       Ni433   1.915       .  S
O426        C436   1.281       .  A
O427       Ni433   1.918       .  S
O427        C437   1.281       .  A
O428       Ni433   1.913       .  S
O428        C438   1.281       .  A
O429       Ni434   1.921       .  S
O429        C438   1.282       .  A
O430       Ni434   1.913       .  S
O430        C437   1.280       .  A
O431       Ni434   1.921       .  S
O431        C436   1.282       .  A
O432       Ni434   1.917       .  S
O432        C435   1.281       .  A
Ni433      Ni434   2.388       .  S
C435        C840   1.476       .  S
C436        C830   1.477       .  S
C437        C823   1.469       .  S
C438        C813   1.489       .  S
O440       Ni447   1.917       .  S
O440        C450   1.281   1_455  A
O441       Ni447   1.918   1_655  S
O441        C451   1.281       .  A
O442        C452   1.280       .  A
O443        C452   1.281       .  A
O444       Ni448   1.912       .  S
O444        C451   1.280       .  A
O446       Ni448   1.916   1_455  S
O446        C449   1.281       .  A
Ni447      Ni448   2.392   1_455  S
C449        C800   1.475   1_455  S
C450        C790   1.467       .  S
C451        C820   1.469       .  S
C452        C810   1.468       .  S
O453       Ni461   1.919       .  S
O453        C463   1.281       .  A
O454       Ni461   1.918       .  S
O454        C464   1.281       .  A
O455       Ni461   1.919       .  S
O455        C465   1.282       .  A
O456       Ni461   1.910       .  S
O456        C466   1.280       .  A
O457       Ni462   1.916       .  S
O457        C466   1.281       .  A
O458       Ni462   1.909       .  S
O458        C465   1.280       .  A
O459       Ni462   1.917       .  S
O459        C464   1.282       .  A
O460       Ni462   1.916       .  S
O460        C463   1.280       .  A
Ni461      Ni462   2.389       .  S
C463        C780   1.470       .  S
C464        C770   1.475       .  S
C465        C750   1.485       .  S
C466        C763   1.472       .  S
O467       Ni475   1.913       .  S
O467        C477   1.280       .  A
O468       Ni475   1.917       .  S
O468        C478   1.282       .  A
O469        C479   1.281       .  A
O470       Ni475   1.911       .  S
O470        C480   1.279       .  A
O471       Ni476   1.917       .  S
O471        C480   1.280       .  A
O472        C479   1.280       .  A
O473       Ni476   1.916       .  S
O473        C478   1.280       .  A
O474       Ni476   1.920       .  S
O474        C477   1.282       .  A
Ni475      Ni476   2.391       .  S
C477        C733   1.472       .  S
C478        C740   1.478       .  S
C479        C760   1.475       .  S
C480        C753   1.466       .  S
O481       Ni489   1.923       .  S
O481        C491   1.282       .  A
O482       Ni489   1.913       .  S
O482        C492   1.280       .  A
O483       Ni489   1.920       .  S
O483        C493   1.281       .  A
O484       Ni489   1.916       .  S
O484        C494   1.281       .  A
O485       Ni490   1.922       .  S
O485        C494   1.282       .  A
O486       Ni490   1.915       .  S
O486        C493   1.280       .  A
O487       Ni490   1.921       .  S
O487        C492   1.282       .  A
O488       Ni490   1.912       .  S
O488        C491   1.280       .  A
Ni489      Ni490   2.390       .  S
C491        C720   1.479       .  S
C492        C710   1.474       .  S
C493        C690   1.471       .  S
C494        C700   1.474       .  S
O496       Ni503   1.911       .  S
O496        C506   1.280       .  A
O497       Ni503   1.919       .  S
O497        C507   1.281       .  A
O498        C508   1.281       .  A
O499       Ni504   1.920   1_655  S
O499        C508   1.281       .  A
O500        C507   1.281       .  A
O501       Ni504   1.922   1_655  S
O502        C505   1.280       .  A
C507        C693   1.472       .  S
C508        C703   1.473       .  S
C509        C713   1.485       .  S
C509        C510   1.398       .  A
C509        C514   1.403       .  A
C510        C511   1.399   1_556  A
C510        H515   1.083       .  S
C511        C833   1.488       .  S
C511        C512   1.405       .  A
C512        C513   1.418   1_554  A
C512        H516   1.077       .  S
C513        C522   1.515   1_566  S
C513        C514   1.416       .  A
C514        H517   1.077       .  S
C518        C660   1.483       .  S
C518        C519   1.397       .  A
C518        C523   1.403       .  A
C519        C520   1.396   1_554  A
C519        H524   1.084       .  S
C520        C783   1.481       .  S
C520        C521   1.403       .  A
C521        C522   1.419   1_556  A
C521        H525   1.077       .  S
C522        C523   1.418       .  A
C523        H526   1.077       .  S
C527        C653   1.481       .  S
C527        C528   1.397       .  A
C527        C532   1.401       .  A
C528        C529   1.399       .  A
C528        H533   1.084       .  S
C529        C773   1.490       .  S
C529        C530   1.407       .  A
C530        C531   1.419       .  A
C530        H534   1.077       .  S
C531        C540   1.513       .  S
C531        C532   1.415       .  A
C532        H535   1.079       .  S
C536        C723   1.491       .  S
C536        C537   1.402       .  A
C536        C541   1.405       .  A
C537        C538   1.399       .  A
C537        H542   1.082       .  S
C538        C843   1.488       .  S
C538        C539   1.403       .  A
C539        C540   1.416       .  A
C539        H543   1.078       .  S
C540        C541   1.415       .  A
C541        H544   1.078       .  S
C545        C793   1.476       .  S
C545        C546   1.394       .  A
C546        C547   1.399   1_655  A
C546        H551   1.084       .  S
C547        C673   1.488       .  S
C548        C549   1.418       .  A
C548        H552   1.077       .  S
C549        C556   1.517   1_565  S
C549        C550   1.418       .  A
C550        H553   1.077       .  S
C554        C730   1.482       .  S
C554        C555   1.403       .  A
C554        C559   1.395       .  A
C555        C556   1.419       .  A
C555        H560   1.077       .  S
C556        C557   1.418       .  A
C557        C558   1.404       .  A
C557        H561   1.075       .  S
C558        C643   1.487       .  S
C558        C559   1.397       .  A
C559        H562   1.084       .  S
C563        C743   1.492       .  S
C563        C564   1.404       .  A
C563        C568   1.398   1_556  A
C564        C565   1.419       .  A
C564        H569   1.074       .  S
C565        C576   1.516       .  S
C565        C566   1.417   1_556  A
C566        C567   1.405       .  A
C566        H570   1.077       .  S
C567        C633   1.491       .  S
C567        C568   1.399       .  A
C568        H571   1.083       .  S
C572        C803   1.487       .  S
C572        C573   1.399   1_554  A
C573        C574   1.395       .  A
C573        H578   1.084       .  S
C574        C680   1.478       .  S
C575        C576   1.417       .  A
C575        H579   1.076       .  S
C576        C577   1.419   1_556  A
C577        H580   1.078       .  S
O581       Ni589   1.921       .  S
O581        C591   1.281       .  A
O582       Ni589   1.911       .  S
O582        C592   1.280       .  A
O583       Ni589   1.919       .  S
O583        C593   1.281       .  A
O584       Ni589   1.918       .  S
O584        C594   1.281       .  A
O585       Ni590   1.918       .  S
O585        C594   1.281       .  A
O586       Ni590   1.918       .  S
O586        C593   1.281       .  A
O587       Ni590   1.920       .  S
O587        C592   1.281       .  A
O588       Ni590   1.911       .  S
O588        C591   1.280       .  A
Ni589      Ni590   2.391       .  S
C591        C663   1.470       .  S
C592        C650   1.471       .  S
C593        C610   1.473       .  S
C594        C623   1.471       .  S
O595       Ni603   1.919       .  S
O595        C605   1.281       .  A
O596       Ni603   1.910       .  S
O596        C606   1.280       .  A
O597       Ni603   1.915       .  S
O597        C607   1.280       .  A
O598        C608   1.282       .  A
O599        C608   1.281       .  A
O600       Ni604   1.921       .  S
O600        C607   1.282       .  A
O601       Ni604   1.921       .  S
O601        C606   1.282       .  A
O602       Ni604   1.911       .  S
O602        C605   1.280       .  A
Ni603      Ni604   2.390       .  S
C605        C640   1.472       .  S
C606        C630   1.479       .  S
C607        C613   1.472       .  S
C608        C620   1.474       .  S
C609        C610   1.405       .  A
C609        C614   1.400       .  A
C609        F616   1.357       .  S
C610        C611   1.405       .  A
C611        C612   1.400       .  A
C611        F618   1.358       .  S
C612        C613   1.405       .  A
C612        F617   1.358       .  S
C613        C614   1.404       .  A
C614        F615   1.358       .  S
C619        C620   1.406       .  A
C619        C624   1.400       .  A
C619        F626   1.358       .  S
C620        C621   1.406       .  A
C621        C622   1.400       .  A
C621        F628   1.358       .  S
C622        C623   1.404       .  A
C622        F627   1.358       .  S
C623        C624   1.405       .  A
C624        F625   1.358       .  S
C629        F636   1.358       .  S
C630        C631   1.405       .  A
C631        C632   1.394       .  A
C631        F638   1.358       .  S
C632        C633   1.410       .  A
C632        F637   1.358       .  S
C633        C634   1.410       .  A
C639        C640   1.405       .  A
C639        C644   1.401       .  A
C639        F646   1.358       .  S
C641        C642   1.395       .  A
C641        F648   1.358       .  S
C642        F647   1.358       .  S
C643        C644   1.409       .  A
C644        F645   1.357       .  S
C649        C650   1.404       .  A
C649        C654   1.396       .  A
C649        F656   1.358       .  S
C650        C651   1.405       .  A
C651        C652   1.401       .  A
C651        F658   1.358       .  S
C652        C653   1.408       .  A
C652        F657   1.358       .  S
C653        C654   1.406       .  A
C654        F655   1.358       .  S
C659        C660   1.408       .  A
C659        C664   1.401       .  A
C659        F666   1.358       .  S
C660        C661   1.407       .  A
C661        C662   1.395       .  A
C661        F668   1.358       .  S
C662        C663   1.403       .  A
C662        F667   1.358       .  S
C663        C664   1.405       .  A
C664        F665   1.358       .  S
C669        C670   1.405   1_655  A
C669        C674   1.400       .  A
C669        F676   1.358       .  S
C671        C672   1.396       .  A
C671        F678   1.358       .  S
C672        F677   1.358       .  S
C673        C674   1.410   1_455  A
C674        F675   1.358       .  S
C679        C680   1.407   1_655  A
C679        C684   1.400       .  A
C679        F686   1.358       .  S
C681        C682   1.397       .  A
C681        F688   1.358       .  S
C682        F687   1.357       .  S
C683        C684   1.403   1_455  A
C684        F685   1.358       .  S
C689        C690   1.405       .  A
C689        C694   1.399       .  A
C689        F696   1.358       .  S
C690        C691   1.404       .  A
C691        C692   1.400       .  A
C691        F698   1.358       .  S
C692        C693   1.405       .  A
C692        F697   1.357       .  S
C693        C694   1.405       .  A
C694        F695   1.358       .  S
C699        C700   1.405       .  A
C699        C704   1.401       .  A
C699        F706   1.358       .  S
C700        C701   1.406       .  A
C701        C702   1.400       .  A
C701        F708   1.358       .  S
C702        C703   1.404       .  A
C702        F707   1.358       .  S
C703        C704   1.405       .  A
C704        F705   1.358       .  S
C709        C710   1.405       .  A
C709        C714   1.398       .  A
C709        F716   1.358       .  S
C710        C711   1.404       .  A
C711        C712   1.400       .  A
C711        F718   1.358       .  S
C712        C713   1.409       .  A
C712        F717   1.358       .  S
C713        C714   1.407       .  A
C714        F715   1.358       .  S
C719        C720   1.406       .  A
C719        C724   1.397       .  A
C719        F726   1.358       .  S
C720        C721   1.405       .  A
C721        C722   1.401       .  A
C721        F728   1.358       .  S
C722        C723   1.411       .  A
C722        F727   1.358       .  S
C723        C724   1.409       .  A
C724        F725   1.358       .  S
C729        C730   1.407       .  A
C729        C734   1.401       .  A
C729        F736   1.358       .  S
C731        C732   1.397       .  A
C731        F738   1.358       .  S
C732        F737   1.358       .  S
C733        C734   1.406       .  A
C734        F735   1.358       .  S
C739        C744   1.402       .  A
C739        F746   1.358       .  S
C740        C741   1.403       .  A
C741        C742   1.395       .  A
C741        F748   1.358       .  S
C742        C743   1.411       .  A
C742        F747   1.358       .  S
C744        F745   1.357       .  S
C749        C750   1.412       .  A
C749        C754   1.396       .  A
C749        F756   1.358       .  S
C750        C751   1.412       .  A
C751        C752   1.399       .  A
C751        F758   1.358       .  S
C752        C753   1.401       .  A
C752        F757   1.358       .  S
C753        C754   1.400       .  A
C754        F755   1.358       .  S
C759        C760   1.407       .  A
C759        C764   1.398       .  A
C759        F766   1.358       .  S
C760        C761   1.407       .  A
C761        C762   1.396       .  A
C761        F768   1.358       .  S
C762        C763   1.405       .  A
C762        F767   1.358       .  S
C763        C764   1.405       .  A
C764        F765   1.358       .  S
C769        C770   1.403       .  A
C769        C774   1.396       .  A
C769        F776   1.358       .  S
C770        C771   1.406       .  A
C771        C772   1.402       .  A
C771        F778   1.358       .  S
C772        C773   1.410       .  A
C772        F777   1.357       .  S
C773        C774   1.411       .  A
C774        F775   1.358       .  S
C779        C780   1.405       .  A
C779        C784   1.401       .  A
C779        F786   1.358       .  S
C780        C781   1.402       .  A
C781        C782   1.397       .  A
C781        F788   1.358       .  S
C782        C783   1.407       .  A
C782        F787   1.358       .  S
C783        C784   1.407       .  A
C784        F785   1.358       .  S
C789        C794   1.397       .  A
C789        F796   1.358       .  S
C790        C791   1.405       .  A
C791        C792   1.401       .  A
C791        F798   1.358       .  S
C792        C793   1.404       .  A
C792        F797   1.357       .  S
C794        F795   1.358       .  S
C799        C800   1.404       .  A
C799        C804   1.397       .  A
C799        F806   1.358       .  S
C801        C802   1.401       .  A
C801        F808   1.358       .  S
C802        F807   1.358       .  S
C803        C804   1.408   1_455  A
C804        F805   1.358       .  S
C809        C810   1.401       .  A
C809        C814   1.400       .  A
C809        F816   1.358       .  S
C810        C811   1.400       .  A
C811        C812   1.398       .  A
C811        F818   1.358       .  S
C812        C813   1.413       .  A
C812        F817   1.358       .  S
C813        C814   1.413       .  A
C814        F815   1.358       .  S
C819        C820   1.405       .  A
C819        C824   1.399       .  A
C819        F826   1.358       .  S
C820        C821   1.404       .  A
C821        C822   1.398       .  A
C821        F828   1.358       .  S
C822        C823   1.405       .  A
C822        F827   1.358       .  S
C823        C824   1.404       .  A
C824        F825   1.358       .  S
C829        C830   1.405       .  A
C829        C834   1.398       .  A
C829        F836   1.358       .  S
C830        C831   1.406       .  A
C831        C832   1.401       .  A
C831        F838   1.358       .  S
C832        C833   1.410       .  A
C832        F837   1.358       .  S
C833        C834   1.408       .  A
C834        F835   1.358       .  S
C839        C840   1.405       .  A
C839        C844   1.399       .  A
C839        F846   1.358       .  S
C840        C841   1.404       .  A
C841        C842   1.400       .  A
C841        F848   1.358       .  S
C842        C843   1.410       .  A
C842        F847   1.358       .  S
C843        C844   1.408       .  A
C844        F845   1.358       .  S
