geometry optimzed in LAMMPS
_audit_creation_date              2020-12-01 
_audit_creation_method            'lammps2cif' 
_symmetry_space_group_name_H-M    'P1' 
_symmetry_Int_Tables_number       1 
_symmetry_cell_setting            triclinic 
loop_ 
_symmetry_equiv_pos_as_xyz 
  x,y,z 
_cell_length_a                    49.48971629 
_cell_length_b                    47.25094641736846 
_cell_length_c                    31.69626431948957 
_cell_angle_alpha                 94.91116344305345 
_cell_angle_beta                  89.63156589445381 
_cell_angle_gamma                 121.57851882663697 
loop_ 
_atom_site_label 
_atom_site_type_symbol 
_atom_site_fract_x 
_atom_site_fract_y 
_atom_site_fract_z 
_atom_site_charge 
C1          C  0.29252885  0.13791562  0.95776931     0.03500
C2          C  0.31147633  0.17189255  0.95115213    -0.12700
C3          C  0.34461734  0.18788117  0.95043859     0.01000
C4          C  0.35906035  0.16967115  0.95660009    -0.11200
C5          C  0.34069231  0.13545408  0.96245676     0.03500
C6          C  0.30744963  0.11993418  0.96341705    -0.10600
H7          H  0.30060076  0.18629380  0.94702570     0.09100
H8          H  0.38454239  0.18195606  0.95464905     0.06600
H9          H  0.29319657  0.09372577  0.96789167     0.06500
C10         C  0.29391590  0.13775998  0.46311155     0.03500
C11         C  0.30929166  0.17219706  0.45893054    -0.12700
C12         C  0.34223993  0.19136010  0.45445780     0.01000
C13         C  0.36005862  0.17606162  0.45527009    -0.11200
C14         C  0.34534785  0.14187263  0.46000301     0.03500
C15         C  0.31226819  0.12299415  0.46395880    -0.10600
H16         H  0.29555286  0.18384646  0.45667622     0.09100
H17         H  0.38550353  0.19096600  0.45232355     0.06600
H18         H  0.30057345  0.09653806  0.46675859     0.06500
C19         C  0.19869339  0.34958159  0.77177202     0.03500
C20         C  0.18075698  0.36486877  0.77129943    -0.12700
C21         C  0.14765524  0.34635154  0.77539929     0.01000
C22         C  0.13263997  0.31205532  0.78007466    -0.11200
C23         C  0.15009557  0.29632798  0.78042751     0.03500
C24         C  0.18295108  0.31509791  0.77570075    -0.10600
H25         H  0.19266860  0.39131200  0.76832928     0.09100
H26         H  0.10721432  0.29731295  0.78319310     0.09600
H27         H  0.19635953  0.30303429  0.77743559     0.06500
C28         C  0.19734851  0.34733189  0.27274483     0.03500
C29         C  0.17840229  0.31330529  0.27865042    -0.12700
C30         C  0.14532679  0.29763052  0.28040431     0.01000
C31         C  0.13106560  0.31634816  0.27650222    -0.11200
C32         C  0.14962194  0.35068559  0.27131434     0.03500
C33         C  0.18272920  0.36575490  0.26886911    -0.10600
H34         H  0.18928187  0.29871040  0.28130459     0.09100
H35         H  0.10569134  0.30429070  0.27952680     0.06600
H36         H  0.19729600  0.39205058  0.26482381     0.06500
O37         O  0.05655066  0.49577424  0.80442865    -0.79800
O38         O  0.42685601  0.45016515  0.82608003    -0.79800
O39         O  0.48973962  0.43673857  0.91550292    -0.79800
O40         O  0.48963138  0.02386560  0.78596946    -0.79700
O41         O  0.45412042  0.42226436  0.86555578    -0.79900
O42         O  0.99658016  0.98110828  0.78304687    -0.79800
O43         O  0.43516228  0.50082882  0.82835356    -0.79800
O44         O  0.02429861  0.45682899  0.84489900    -0.79800
C45         C  0.04569981  0.46711703  0.81685737     1.09900
C46         C  0.41870809  0.46990503  0.81564534     1.09800
C47         C  0.46611459  0.41393128  0.89295040     1.09900
C48         C  0.49046459  0.50001688  0.76481654     1.09800
O49         O  0.04566832  0.04729429  0.81421397    -0.79800
O50         O  0.45888267  0.46223363  0.94597248    -0.79900
O51         O  0.05266600  0.98641691  0.92250515    -0.79800
O52         O  0.47089800  0.03634523  0.90672321    -0.79800
O53         O  0.42795557  0.98621525  0.90480295    -0.79800
O54         O  0.05984711  0.02587398  0.88283092    -0.79800
O55         O  0.02582465  0.06264645  0.86571225    -0.79700
O56         O  0.00931731  0.50329380  0.94735560    -0.79800
Co57       Co  0.02529432  0.00088266  0.83343403     1.51500
Co58       Co  0.44439740  0.45662419  0.88400887     1.51700
Co59       Co  0.01653996  0.48276915  0.89565740     1.51600
Co60       Co  0.48136853  0.02947425  0.84828523     1.51500
O61         O  0.48710094  0.49261326  0.86561313    -1.41700
C62         C  0.04584441  0.07047780  0.83760420     1.09800
C63         C  0.48424600  0.48535676  0.96645721     1.09900
C64         C  0.07070919  0.01508216  0.91018061     1.09900
C65         C  0.44283916  0.01717450  0.91727571     1.09800
O66         O  0.06252984  0.50062396  0.32637902    -0.79800
O67         O  0.43030910  0.45878570  0.34869883    -0.79800
O68         O  0.46559743  0.42433785  0.36794992    -0.79800
O69         O  0.48033939  0.98142067  0.28411179    -0.79700
O70         O  0.44508874  0.43952498  0.41864781    -0.79900
O71         O  0.03040971  0.02318754  0.28476433    -0.79800
O72         O  0.43599405  0.49706670  0.30799453    -0.79800
O73         O  0.01974863  0.45063286  0.32653399    -0.79800
C74         C  0.04755192  0.46945387  0.31504382     1.09900
C75         C  0.41868620  0.46844889  0.32087455     1.09800
C76         C  0.44535282  0.41645756  0.39571986     1.09900
C77         C  0.50522158  0.49945622  0.26470839     1.09800
O78         O  0.03482235  0.06361176  0.36449033    -0.79800
O79         O  0.49303642  0.50619084  0.44865979    -0.79900
O80         O  0.05653724  0.98792520  0.40388913    -0.79800
O81         O  0.46489906  0.02845188  0.38516423    -0.79800
O82         O  0.43274398  0.98974962  0.42605484    -0.79800
O83         O  0.06408488  0.03811974  0.40431972    -0.79800
O84         O  0.99902481  0.04829315  0.31449799    -0.79700
O85         O  0.00179104  0.46466110  0.44685932    -0.79800
Co86       Co  0.04554776  0.03000741  0.34661360     1.51500
Co87       Co  0.46460623  0.48525310  0.39800945     1.51700
Co88       Co  0.00993572  0.45829227  0.38479067     1.51600
Co89       Co  0.47292226  0.00234090  0.33522412     1.51500
O90         O  0.50323147  0.49408852  0.36621347    -1.41700
C91         C  0.02269334  0.07146347  0.33671023     1.09800
C92         C  0.50004387  0.48814449  0.46743993     1.09900
C93         C  0.07304284  0.01913913  0.41512246     1.09900
C94         C  0.44362700  0.01831443  0.41330790     1.09800
C95         C  0.99426323  0.48203952  0.65423754     0.20700
C96         C  0.00032015  0.46708329  0.61825777    -0.39200
C97         C  0.00121626  0.48040948  0.58007142     0.19700
C98         C  0.49649470  0.50668189  0.57800243     0.22300
C99         C  0.49044997  0.52165421  0.61401425    -0.39700
C100        C  0.48954713  0.50831737  0.65222704     0.21100
N101        N  0.99333703  0.47468005  0.69435685    -0.33000
C102        C  0.48823037  0.49653676  0.71823222    -0.10500
C103        C  0.48548984  0.51780040  0.69303411    -0.29300
N104        N  0.49727518  0.51389391  0.53780165    -0.45900
C105        C  0.50237683  0.49199791  0.51403053    -0.05200
C106        C  0.00514785  0.47079592  0.53931560    -0.22600
H107        H  0.00400317  0.44654480  0.61988825     0.19200
H108        H  0.48671669  0.04215245  0.61236799     0.18000
H109        H  0.48250894  0.03840166  0.70337760     0.14300
H110        H  0.00803159  0.45012055  0.52904897     0.14200
H111        H  0.99736811  0.45683953  0.70506398     0.32300
H112        H  0.49319694  0.03165938  0.52698953     0.35100
C113        C  0.00672923  0.00234709  0.07686774     0.20700
C114        C  0.02795769  0.01587360  0.11246998    -0.39200
C115        C  0.01470593  0.00431899  0.15125058     0.19700
C116        C  0.48277044  0.48097672  0.15422883     0.22300
C117        C  0.46153684  0.46740933  0.11859823    -0.39700
C118        C  0.47478663  0.47900969  0.07980450     0.21100
N119        N  0.01362187  0.00866549  0.03641300    -0.33000
C120        C  0.48597717  0.48906157  0.01320678    -0.10500
C121        C  0.46111860  0.47027837  0.03921826    -0.29300
N122        N  0.47583861  0.47506872  0.19479697    -0.45900
C123        C  0.50346594  0.49501319  0.21798327    -0.05200
C124        C  0.02831754  0.01349951  0.19185718    -0.22600
H125        H  0.05293309  0.03419395  0.11015807     0.19200
H126        H  0.43652725  0.44923172  0.12094634     0.18000
H127        H  0.43667944  0.45181925  0.02957038     0.14300
H128        H  0.05269730  0.03220846  0.20145612     0.14200
H129        H  0.03608033  0.02442181  0.02508584     0.32300
H130        H  0.45336157  0.45950476  0.20620719     0.35100
C131        C  0.07685713  0.15831590  0.33001557     0.20700
C132        C  0.10581660  0.18861303  0.33815845    -0.39200
C133        C  0.11007952  0.21462154  0.31535680     0.19700
C134        C  0.08713250  0.21091657  0.28685036     0.22300
C135        C  0.05828717  0.18024961  0.27803133    -0.39700
C136        C  0.05406572  0.15398690  0.30072756     0.21100
N137        N  0.06753308  0.12991305  0.34736656    -0.33000
C138        C  0.03876875  0.10687091  0.32875933    -0.10500
C139        C  0.02942146  0.12090931  0.29937953    -0.29300
N140        N  0.09664926  0.23996476  0.27057875    -0.45900
C141        C  0.12600023  0.26208015  0.28853049    -0.05200
C142        C  0.13519242  0.24705655  0.31644194    -0.22600
H143        H  0.12371869  0.19171044  0.36071593     0.19200
H144        H  0.04046513  0.17711417  0.25532144     0.18000
H145        H  0.00803778  0.10847579  0.27910754     0.14300
H146        H  0.15698465  0.25857702  0.33578437     0.14200
H147        H  0.08057547  0.12614440  0.36958349     0.32300
H148        H  0.08404772  0.24443838  0.24853267     0.35100
C149        C  0.33934192  0.42949578  0.27731687     0.20700
C150        C  0.31319220  0.42830655  0.25812641    -0.39200
C151        C  0.28327897  0.40049492  0.26505288     0.19700
C152        C  0.27976590  0.37570838  0.28896372     0.22300
C153        C  0.30583969  0.37680516  0.30796838    -0.39700
C154        C  0.33566413  0.40462223  0.30125799     0.21100
N155        N  0.36987822  0.45476668  0.27912604    -0.33000
C156        C  0.38559684  0.44597192  0.30471491    -0.10500
C157        C  0.36509038  0.41470666  0.31870883    -0.29300
N158        N  0.24893884  0.35324877  0.29345202    -0.45900
C159        C  0.23244047  0.36378883  0.27257823    -0.05200
C160        C  0.25317844  0.39315813  0.25416098    -0.22600
H161        H  0.31583746  0.44824198  0.24062742     0.19200
H162        H  0.30301242  0.35805054  0.32796579     0.18000
H163        H  0.37059906  0.40208599  0.34096796     0.14300
H164        H  0.24718162  0.40780231  0.23632535     0.14200
H165        H  0.37907992  0.47738876  0.26587164     0.32300
H166        H  0.23988384  0.33299016  0.31161948     0.35100
C167        C  0.09901503  0.38407806  0.26723341     0.20700
C168        C  0.07012082  0.38282291  0.26532576    -0.39200
C169        C  0.07208112  0.41346201  0.27370662     0.19700
C170        C  0.10063992  0.44320522  0.28329351     0.22300
C171        C  0.12959437  0.44443616  0.28515953    -0.39700
C172        C  0.12760114  0.41370804  0.27671770     0.21100
N173        N  0.10317869  0.35809915  0.26321581    -0.33000
C174        C  0.13474694  0.37108302  0.27028932    -0.10500
C175        C  0.15070650  0.40586480  0.27867190    -0.29300
N176        N  0.09564738  0.46808597  0.29511278    -0.45900
C177        C  0.06367295  0.45388835  0.29367225    -0.05200
C178        C  0.04828196  0.41998728  0.27981044    -0.22600
H179        H  0.04760420  0.35948975  0.25960418     0.19200
H180        H  0.15185204  0.46738314  0.29424464     0.18000
H181        H  0.17563128  0.42314700  0.28695482     0.14300
H182        H  0.02301237  0.40186693  0.27864325     0.14200
H183        H  0.08531151  0.33306187  0.25648724     0.32300
H184        H  0.11270101  0.49234473  0.30736374     0.35100
C185        C  0.08052443  0.15779793  0.83268353     0.20700
C186        C  0.08174441  0.18807086  0.84040042    -0.39200
C187        C  0.10360614  0.21391401  0.81738963     0.19700
C188        C  0.12325301  0.21020780  0.78922214     0.22300
C189        C  0.12177704  0.17960661  0.78106898    -0.39700
C190        C  0.09940916  0.15339001  0.80378767     0.21100
N191        N  0.06062822  0.12928131  0.84936423    -0.33000
C192        C  0.06616782  0.10603153  0.83067964    -0.10500
C193        C  0.09037925  0.12009361  0.80203219    -0.29300
N194        N  0.14230941  0.23899746  0.77199113    -0.45900
C195        C  0.13429519  0.26087961  0.78901079    -0.05200
C196        C  0.11017170  0.24599330  0.81734644    -0.22600
H197        H  0.06642183  0.19113282  0.86237333     0.19200
H198        H  0.13660352  0.17634907  0.75839311     0.18000
H199        H  0.09928704  0.10748566  0.78167948     0.14300
H200        H  0.09939143  0.25737001  0.83618919     0.14200
H201        H  0.04320749  0.12552226  0.87087508     0.32300
H202        H  0.15950394  0.24340742  0.74986562     0.35100
C203        C  0.28227366  0.41165672  0.77770397     0.20700
C204        C  0.30964490  0.44319757  0.78823295    -0.39200
C205        C  0.33865064  0.44466626  0.78492419     0.19700
C206        C  0.34014584  0.41673049  0.77240175     0.22300
C207        C  0.31280306  0.38528703  0.76179015    -0.39700
C208        C  0.28389250  0.38389840  0.76490116     0.21100
N209        N  0.25190166  0.40323272  0.78088011    -0.33000
C210        C  0.23390306  0.36975878  0.77002774    -0.10500
C211        C  0.25324215  0.35696617  0.75970267    -0.29300
N212        N  0.36989674  0.42344949  0.77756756    -0.45900
C213        C  0.38750315  0.45575050  0.79396445    -0.05200
C214        C  0.36897347  0.47007317  0.79813263    -0.22600
H215        H  0.30839228  0.46467178  0.79990728     0.19200
H216        H  0.31390338  0.36320763  0.75360182     0.18000
H217        H  0.24607819  0.33132342  0.75047619     0.14300
H218        H  0.37590152  0.49440489  0.81358749     0.14200
H219        H  0.24421353  0.41924639  0.79158084     0.32300
H220        H  0.37714852  0.40624928  0.77393122     0.35100
C221        C  0.06597848  0.40523286  0.79664810     0.20700
C222        C  0.06541767  0.37599589  0.80364474    -0.39200
C223        C  0.09153042  0.37434521  0.78952731     0.19700
C224        C  0.11630297  0.39982107  0.76993262     0.22300
C225        C  0.11679235  0.42900741  0.76267575    -0.39700
C226        C  0.09066867  0.43069445  0.77678709     0.21100
N227        N  0.04564473  0.41421919  0.81088427    -0.33000
C228        C  0.05752113  0.44570358  0.80029838    -0.10500
C229        C  0.08537276  0.45667714  0.77846820    -0.29300
N230        N  0.13911096  0.39299952  0.76172845    -0.45900
C231        C  0.12892302  0.36289239  0.77628298    -0.05200
C232        C  0.09914619  0.35051944  0.79368972    -0.22600
H233        H  0.04658271  0.35648366  0.82022581     0.19200
H234        H  0.13660203  0.44941249  0.74848886     0.18000
H235        H  0.10096507  0.48127397  0.76830687     0.14300
H236        H  0.08532506  0.32779130  0.80893920     0.14200
H237        H  0.02597493  0.40056468  0.82901002     0.32300
H238        H  0.16035068  0.40822423  0.74730394     0.35100
C239        C  0.37629228  0.08821319  0.46412596     0.20700
C240        C  0.37526840  0.05870492  0.47077387    -0.39200
C241        C  0.40053037  0.05618544  0.45507605     0.19700
C242        C  0.42491975  0.08117200  0.43425214     0.22300
C243        C  0.42601194  0.11076021  0.42775734    -0.39700
C244        C  0.40072352  0.11326178  0.44353940     0.21100
N245        N  0.35409414  0.09560531  0.47369737    -0.33000
C246        C  0.36420674  0.12557542  0.45891134    -0.10500
C247        C  0.39347444  0.13746029  0.44016140    -0.29300
N248        N  0.44446064  0.07146793  0.41895997    -0.45900
C249        C  0.43232689  0.04004619  0.42991373    -0.05200
C250        C  0.40513197  0.02976243  0.45291463    -0.22600
H251        H  0.35565375  0.03867741  0.48573316     0.19200
H252        H  0.44458064  0.12988194  0.41041816     0.18000
H253        H  0.40697697  0.15992894  0.42429495     0.14300
H254        H  0.38958481  0.00542539  0.46381531     0.14200
H255        H  0.33317548  0.08070788  0.48891576     0.32300
H256        H  0.46382202  0.08467309  0.40019765     0.35100
C257        C  0.41155517  0.32958402  0.40160293     0.20700
C258        C  0.41121056  0.29973945  0.39525183    -0.39200
C259        C  0.38899431  0.27382020  0.41780255     0.19700
C260        C  0.36823096  0.27705316  0.44425521     0.22300
C261        C  0.36887115  0.30726981  0.45112147    -0.39700
C262        C  0.39159664  0.33358386  0.42890188     0.21100
N263        N  0.43158451  0.35811225  0.38514372    -0.33000
C264        C  0.42512681  0.38098618  0.40254584    -0.10500
C265        C  0.40010423  0.36666992  0.42995144    -0.29300
N266        N  0.34893478  0.24819729  0.46117277    -0.45900
C267        C  0.35787129  0.22673782  0.44564705    -0.05200
C268        C  0.38290375  0.24200342  0.41865310    -0.22600
H269        H  0.42738862  0.29704463  0.37458721     0.19200
H270        H  0.35316508  0.31017604  0.47249825     0.18000
H271        H  0.39037247  0.37900211  0.44914576     0.14300
H272        H  0.39454893  0.23102561  0.40105750     0.14200
H273        H  0.44973536  0.36217670  0.36480199     0.32300
H274        H  0.33095900  0.24347409  0.48210024     0.35100
C275        C  0.15262656  0.04487641  0.44526410     0.20700
C276        C  0.18053049  0.04395787  0.44228688    -0.39200
C277        C  0.20902309  0.07423643  0.45404378     0.19700
C278        C  0.20967737  0.10317870  0.46771285     0.22300
C279        C  0.18184470  0.10412060  0.47067197    -0.39700
C280        C  0.15339169  0.07393416  0.45881297     0.21100
N281        N  0.12302731  0.02053815  0.43160114    -0.33000
C282        C  0.10491760  0.03434876  0.43580278    -0.10500
C283        C  0.12303882  0.06753337  0.45309818    -0.29300
N284        N  0.23973847  0.12912350  0.47399257    -0.45900
C285        C  0.25863871  0.11684294  0.46402972    -0.05200
C286        C  0.24013666  0.08249906  0.45173445    -0.22600
H287        H  0.18019548  0.02167048  0.43004584     0.19200
H288        H  0.18242215  0.12705359  0.47970408     0.18000
H289        H  0.11559840  0.08539481  0.45743759     0.14300
H290        H  0.24817147  0.06599935  0.44036967     0.14200
H291        H  0.11619768  0.99697288  0.41685165     0.32300
H292        H  0.24673632  0.15378951  0.48367766     0.35100
C293        C  0.41719722  0.07076431  0.95981115     0.20700
C294        C  0.42078786  0.10203255  0.97022173    -0.39200
C295        C  0.39279287  0.10263122  0.96914573     0.19700
C296        C  0.36343497  0.07430958  0.95836358     0.22300
C297        C  0.35977890  0.04292738  0.94810252    -0.39700
C298        C  0.38779415  0.04225917  0.94942685     0.21100
N299        N  0.44050295  0.06452129  0.95339604    -0.33000
C300        C  0.42595195  0.03187423  0.93857576    -0.10500
C301        C  0.39301015  0.01698347  0.93634566    -0.29300
N302        N  0.34098783  0.08209121  0.95611911    -0.45900
C303        C  0.35613138  0.11573273  0.96536943    -0.05200
C304        C  0.38852559  0.12922867  0.97406387    -0.22600
H305        H  0.44387825  0.12452999  0.97673435     0.19200
H306        H  0.33702183  0.02095542  0.93800779     0.18000
H307        H  0.37554929  0.99209530  0.92260513     0.14300
H308        H  0.40689797  0.15515157  0.98151977     0.14200
H309        H  0.46489739  0.08204990  0.95559977     0.32300
H310        H  0.31717688  0.06554309  0.94656804     0.35100
C311        C  0.40289194  0.27428917  0.94163506     0.20700
C312        C  0.43164500  0.30505622  0.95022450    -0.39200
C313        C  0.43562926  0.33115861  0.92741479     0.19700
C314        C  0.41273269  0.32663885  0.89816350     0.22300
C315        C  0.38391137  0.29613880  0.89004068    -0.39700
C316        C  0.37986109  0.27026072  0.91302473     0.21100
N317        N  0.39338957  0.24554668  0.95870755    -0.33000
C318        C  0.36394829  0.22322522  0.94117739    -0.10500
C319        C  0.35472150  0.23784804  0.91262241    -0.29300
N320        N  0.42167273  0.35515086  0.88123412    -0.45900
C321        C  0.45030222  0.37836693  0.90006360    -0.05200
C322        C  0.45993905  0.36436244  0.92910072    -0.22600
H323        H  0.44947786  0.30845583  0.97312009     0.19200
H324        H  0.36585282  0.29287620  0.86763610     0.18000
H325        H  0.33281413  0.22614481  0.89350163     0.14300
H326        H  0.48123480  0.37694343  0.94955409     0.14200
H327        H  0.40602208  0.24146787  0.98118383     0.32300
H328        H  0.40844461  0.35889021  0.85928366     0.35100
C329        C  0.15242244  0.07713421  0.93195711     0.20700
C330        C  0.18104988  0.10682596  0.92634007    -0.39200
C331        C  0.20853771  0.10905567  0.94218689     0.19700
C332        C  0.20767210  0.08372769  0.96215434     0.22300
C333        C  0.17895798  0.05406764  0.96812721    -0.39700
C334        C  0.15138477  0.05178125  0.95222385     0.21100
N335        N  0.12347185  0.06779675  0.91634998    -0.33000
C336        C  0.10379999  0.03623218  0.92660149    -0.10500
C337        C  0.12025148  0.02546106  0.94937871    -0.29300
N338        N  0.23725835  0.09099995  0.97141378    -0.45900
C339        C  0.25725506  0.12118517  0.95698862    -0.05200
C340        C  0.23994270  0.13321434  0.93888238    -0.22600
H341        H  0.18196096  0.12623884  0.90941749     0.19200
H342        H  0.17824020  0.03376448  0.98260026     0.18000
H343        H  0.11107558  0.00096683  0.95993082     0.14300
H344        H  0.24886895  0.15575018  0.92324319     0.14200
H345        H  0.11774253  0.08144934  0.89803110     0.32300
H346        H  0.24317298  0.07584591  0.98597295     0.35100
C347        C  0.29254716  0.63791134  0.95774119     0.03500
C348        C  0.31149705  0.67188642  0.95112242    -0.12700
C349        C  0.34463679  0.68787054  0.95041253     0.01000
C350        C  0.35907695  0.66965954  0.95658257    -0.11200
C351        C  0.34070626  0.63544300  0.96244325     0.03500
C352        C  0.30746347  0.61992595  0.96339334    -0.10600
H353        H  0.30062434  0.68629006  0.94699253     0.09100
H354        H  0.38455921  0.68194502  0.95463749     0.06600
H355        H  0.29320678  0.59371807  0.96786815     0.06500
C356        C  0.29391539  0.63776426  0.46316356     0.03500
C357        C  0.30929472  0.67220327  0.45899287    -0.12700
C358        C  0.34224335  0.69136430  0.45452208     0.01000
C359        C  0.36005931  0.67606308  0.45533171    -0.11200
C360        C  0.34534581  0.64187264  0.46005512     0.03500
C361        C  0.31226544  0.62299501  0.46400596    -0.10600
H362        H  0.29555821  0.68385550  0.45674201     0.09100
H363        H  0.38550461  0.69096663  0.45238870     0.06600
H364        H  0.30056892  0.59653764  0.46679806     0.06500
C365        C  0.19867529  0.84958153  0.77176418     0.03500
C366        C  0.18073636  0.86486531  0.77128937    -0.12700
C367        C  0.14763422  0.84634510  0.77538502     0.01000
C368        C  0.13262132  0.81204819  0.78005944    -0.11200
C369        C  0.15008008  0.79632350  0.78041356     0.03500
C370        C  0.18293596  0.81509762  0.77568999    -0.10600
H371        H  0.19264736  0.89130894  0.76832216     0.09100
H372        H  0.10719568  0.79730395  0.78317702     0.09600
H373        H  0.19634758  0.80303753  0.77742643     0.06500
C374        C  0.19735663  0.84733720  0.27277912     0.03500
C375        C  0.17840555  0.81331436  0.27870398    -0.12700
C376        C  0.14532917  0.79764322  0.28043931     0.01000
C377        C  0.13107225  0.81636092  0.27650178    -0.11200
C378        C  0.14963309  0.85069560  0.27130274     0.03500
C379        C  0.18274123  0.86576173  0.26887628    -0.10600
H380        H  0.18928104  0.79871794  0.28138111     0.09100
H381        H  0.10569677  0.80430663  0.27951027     0.06600
H382        H  0.19731029  0.89205546  0.26482040     0.06500
O383        O  0.05653199  0.99577645  0.80443854    -0.79800
O384        O  0.42683754  0.95015990  0.82607943    -0.79800
O385        O  0.48971680  0.93672563  0.91550068    -0.79800
O386        O  0.48964308  0.52386768  0.78596155    -0.79700
O387        O  0.45409491  0.92225011  0.86555526    -0.79900
O388        O  0.99659607  0.48109855  0.78304286    -0.79800
O389        O  0.43514972  0.00082643  0.82835927    -0.79800
O390        O  0.02427972  0.95683434  0.84491182    -0.79800
C391        C  0.04568228  0.96712076  0.81687202     1.09900
C392        C  0.41869220  0.96990307  0.81564936     1.09800
C393        C  0.46609492  0.91391846  0.89294402     1.09900
C394        C  0.49045095  0.00001417  0.76482190     1.09800
O395        O  0.04568489  0.54728901  0.81420405    -0.79800
O396        O  0.45885536  0.96221538  0.94597305    -0.79900
O397        O  0.05268777  0.48641428  0.92249135    -0.79800
O398        O  0.47091260  0.53635590  0.90671120    -0.79800
O399        O  0.42797421  0.48622294  0.90480208    -0.79800
O400        O  0.05986215  0.52586977  0.88281917    -0.79800
O401        O  0.02584588  0.56263758  0.86571151    -0.79700
O402        O  0.00930890  0.00331434  0.94736092    -0.79800
Co403      Co  0.02531141  0.50087660  0.83342560     1.51500
Co404      Co  0.44437550  0.95661313  0.88400916     1.51700
Co405      Co  0.01652437  0.98278045  0.89566654     1.51600
Co406      Co  0.48138190  0.52948057  0.84827476     1.51500
O407        O  0.48708162  0.99260185  0.86561632    -1.41700
C408        C  0.04586316  0.57047191  0.83759900     1.09800
C409        C  0.48421729  0.98533781  0.96646021     1.09900
C410        C  0.07072885  0.51507899  0.91016253     1.09900
C411        C  0.44285701  0.51718218  0.91727385     1.09800
O412        O  0.06252881  0.00061517  0.32638364    -0.79800
O413        O  0.43030998  0.95877885  0.34871854    -0.79800
O414        O  0.46560309  0.92432604  0.36795997    -0.79800
O415        O  0.48035609  0.48144490  0.28410802    -0.79700
O416        O  0.44509987  0.93952109  0.41865876    -0.79900
O417        O  0.03040364  0.52318946  0.28475883    -0.79800
O418        O  0.43599066  0.99705574  0.30800797    -0.79800
O419        O  0.01974959  0.95062127  0.32653679    -0.79800
C420        C  0.04755238  0.96944557  0.31504501     1.09900
C421        C  0.41868626  0.96843896  0.32089138     1.09800
C422        C  0.44536230  0.91645096  0.39573476     1.09900
C423        C  0.50520207  0.99942578  0.26470442     1.09800
O424        O  0.03481845  0.56361707  0.36448493    -0.79800
O425        O  0.49305408  0.00618705  0.44866101    -0.79900
O426        O  0.05654184  0.48793845  0.40388600    -0.79800
O427        O  0.46489417  0.52845932  0.38515913    -0.79800
O428        O  0.43272909  0.48974907  0.42603347    -0.79800
O429        O  0.06408871  0.53813283  0.40431290    -0.79800
O430        O  0.99902071  0.54829739  0.31449364    -0.79700
O431        O  0.00178649  0.96465871  0.44685963    -0.79800
Co432      Co  0.04554655  0.53001450  0.34660771     1.51500
Co433      Co  0.46461501  0.98524814  0.39801916     1.51700
Co434      Co  0.00993156  0.95828428  0.38479175     1.51600
Co435      Co  0.47292587  0.50235426  0.33522043     1.51500
O436        O  0.50323149  0.99407632  0.36620948    -1.41700
C437        C  0.02268600  0.57146861  0.33670923     1.09800
C438        C  0.50005648  0.98813720  0.46744198     1.09900
C439        C  0.07304562  0.51915252  0.41512085     1.09900
C440        C  0.44361846  0.51831821  0.41329738     1.09800
C441        C  0.99427219  0.98206074  0.65423712     0.20700
C442        C  0.00033490  0.96710681  0.61826024    -0.39200
C443        C  0.00122736  0.98042803  0.58007110     0.19700
C444        C  0.49648759  0.00666930  0.57800231     0.22300
C445        C  0.49044602  0.02164793  0.61401136    -0.39700
C446        C  0.48953368  0.00830928  0.65222682     0.21100
N447        N  0.99334749  0.97470435  0.69435794    -0.33000
C448        C  0.48821123  0.99653054  0.71823594    -0.10500
C449        C  0.48548125  0.01779924  0.69303410    -0.29300
N450        N  0.49727884  0.01388422  0.53780081    -0.45900
C451        C  0.50237872  0.99198502  0.51403378    -0.05200
C452        C  0.00516192  0.97081360  0.53931714    -0.22600
H453        H  0.00402486  0.94657339  0.61989495     0.19200
H454        H  0.48670956  0.54215152  0.61237445     0.18000
H455        H  0.48250520  0.53839420  0.70337983     0.14300
H456        H  0.00805001  0.95014045  0.52905468     0.14200
H457        H  0.99738584  0.95686980  0.70506820     0.32300
H458        H  0.49318341  0.53166332  0.52699386     0.35100
C459        C  0.00672451  0.50232696  0.07686024     0.20700
C460        C  0.02795142  0.51585510  0.11246344    -0.39200
C461        C  0.01469714  0.50430908  0.15124541     0.19700
C462        C  0.48274177  0.98093796  0.15422836     0.22300
C463        C  0.46150578  0.96738086  0.11859984    -0.39700
C464        C  0.47475633  0.97898140  0.07980605     0.21100
N465        N  0.01362072  0.50864016  0.03640548    -0.33000
C466        C  0.48594797  0.98903826  0.01320948    -0.10500
C467        C  0.46108679  0.97026109  0.03922104    -0.29300
N468        N  0.47581070  0.97503385  0.19479787    -0.45900
C469        C  0.50344107  0.99497298  0.21798038    -0.05200
C470        C  0.02830857  0.51349306  0.19185194    -0.22600
H471        H  0.05292802  0.53417084  0.11015094     0.19200
H472        H  0.43649395  0.94921250  0.12094976     0.18000
H473        H  0.43664480  0.95181228  0.02957359     0.14300
H474        H  0.05268960  0.53219871  0.20144921     0.14200
H475        H  0.03608127  0.52439248  0.02507979     0.32300
H476        H  0.45333266  0.95947896  0.20621162     0.35100
C477        C  0.07683323  0.65833000  0.33005986     0.20700
C478        C  0.10579024  0.68862772  0.33821622    -0.39200
C479        C  0.11005948  0.71463836  0.31541444     0.19700
C480        C  0.08711970  0.71093514  0.28689630     0.22300
C481        C  0.05827515  0.68026856  0.27806723    -0.39700
C482        C  0.05404790  0.65400295  0.30076260     0.21100
N483        N  0.06751009  0.62992282  0.34739802    -0.33000
C484        C  0.03875272  0.60687916  0.32877466    -0.10500
C485        C  0.02940749  0.62092177  0.29939754    -0.29300
N486        N  0.09664528  0.73998243  0.27061713    -0.45900
C487        C  0.12599452  0.76209555  0.28857578    -0.05200
C488        C  0.13517645  0.74707153  0.31650073    -0.22600
H489        H  0.12368818  0.69172240  0.36077908     0.19200
H490        H  0.04045999  0.67713427  0.25534602     0.18000
H491        H  0.00803001  0.60848832  0.27911335     0.14300
H492        H  0.15696590  0.75858948  0.33584871     0.14200
H493        H  0.08055113  0.62615195  0.36961624     0.32300
H494        H  0.08405137  0.74445602  0.24855836     0.35100
C495        C  0.33934799  0.92948136  0.27732521     0.20700
C496        C  0.31319899  0.92829297  0.25813597    -0.39200
C497        C  0.28328629  0.90048253  0.26506421     0.19700
C498        C  0.27977258  0.87569622  0.28897609     0.22300
C499        C  0.30584628  0.87679124  0.30797793    -0.39700
C500        C  0.33567049  0.90460751  0.30126590     0.21100
N501        N  0.36988283  0.95475366  0.27913767    -0.33000
C502        C  0.38560038  0.94595972  0.30472859    -0.10500
C503        C  0.36509587  0.91469340  0.31871986    -0.29300
N504        N  0.24894540  0.85324254  0.29347435    -0.45900
C505        C  0.23244810  0.86378678  0.27260606    -0.05200
C506        C  0.25318689  0.89315134  0.25418057    -0.22600
H507        H  0.31584423  0.94822981  0.24063993     0.19200
H508        H  0.30301898  0.85803784  0.32797761     0.18000
H509        H  0.37060465  0.90207403  0.34098093     0.14300
H510        H  0.24719200  0.90779781  0.23634681     0.14200
H511        H  0.37908397  0.97737717  0.26588557     0.32300
H512        H  0.23989072  0.83298640  0.31164630     0.35100
C513        C  0.09902946  0.88408901  0.26717469     0.20700
C514        C  0.07013477  0.88283328  0.26525945    -0.39200
C515        C  0.07209139  0.91346928  0.27366400     0.19700
C516        C  0.10064770  0.94321011  0.28327616     0.22300
C517        C  0.12960227  0.94444177  0.28514852    -0.39700
C518        C  0.12761262  0.91371703  0.27668628     0.21100
N519        N  0.10319491  0.85811122  0.26315194    -0.33000
C520        C  0.13476053  0.87109374  0.27025188    -0.10500
C521        C  0.15071744  0.90587373  0.27865274    -0.29300
N522        N  0.09565142  0.96808536  0.29511466    -0.45900
C523        C  0.06367684  0.95388682  0.29366343    -0.05200
C524        C  0.04828953  0.91999077  0.27977383    -0.22600
H525        H  0.04761969  0.85950064  0.25951902     0.19200
H526        H  0.15185685  0.96738585  0.29425669     0.18000
H527        H  0.17563847  0.92315278  0.28696279     0.14300
H528        H  0.02301984  0.90186964  0.27859098     0.14200
H529        H  0.08532923  0.83307369  0.25640944     0.32300
H530        H  0.11270190  0.99233930  0.30738501     0.35100
C531        C  0.08052822  0.65779091  0.83267086     0.20700
C532        C  0.08173701  0.68805878  0.84037879    -0.39200
C533        C  0.10359815  0.71390500  0.81737100     0.19700
C534        C  0.12325482  0.71020650  0.78921440     0.22300
C535        C  0.12179010  0.67961014  0.78106979    -0.39700
C536        C  0.09942296  0.65339023  0.80378593     0.21100
N537        N  0.06063393  0.62927232  0.84934961    -0.33000
C538        C  0.06618386  0.60602747  0.83067464    -0.10500
C539        C  0.09040159  0.62009595  0.80203606    -0.29300
N540        N  0.14230907  0.73899821  0.77198566    -0.45900
C541        C  0.13428371  0.76087408  0.78899546    -0.05200
C542        C  0.11015507  0.74598117  0.81732278    -0.22600
H543        H  0.06640668  0.69111482  0.86234316     0.19200
H544        H  0.13662429  0.67635839  0.75840196     0.18000
H545        H  0.09931874  0.60749321  0.78169171     0.14300
H546        H  0.09936640  0.75735196  0.83615836     0.14200
H547        H  0.04320684  0.62550809  0.87085152     0.32300
H548        H  0.15950991  0.74341355  0.74986855     0.35100
C549        C  0.28225477  0.91166132  0.77772285     0.20700
C550        C  0.30962567  0.94320021  0.78826679    -0.39200
C551        C  0.33863218  0.94467071  0.78494917     0.19700
C552        C  0.34012816  0.91673842  0.77240568     0.22300
C553        C  0.31278601  0.88529729  0.76178129    -0.39700
C554        C  0.28387519  0.88390699  0.76489960     0.21100
N555        N  0.25188171  0.90323439  0.78089949    -0.33000
C556        C  0.23388504  0.86976285  0.77002655    -0.10500
C557        C  0.25322570  0.85697493  0.75968817    -0.29300
N558        N  0.36987937  0.92345638  0.77756269    -0.45900
C559        C  0.38748584  0.95575339  0.79397445    -0.05200
C560        C  0.36895534  0.97007453  0.79816274    -0.22600
H561        H  0.30837233  0.96467111  0.79995653     0.19200
H562        H  0.31388696  0.86322009  0.75357632     0.18000
H563        H  0.24606281  0.83133471  0.75044422     0.14300
H564        H  0.37588351  0.99440213  0.81363225     0.14200
H565        H  0.24419097  0.91924333  0.79161315     0.32300
H566        H  0.37713167  0.90625698  0.77390940     0.35100
C567        C  0.06596906  0.90524001  0.79667600     0.20700
C568        C  0.06540491  0.87599910  0.80366119    -0.39200
C569        C  0.09151375  0.87434476  0.78953228     0.19700
C570        C  0.11628765  0.89982293  0.76994242     0.22300
C571        C  0.11678041  0.92901328  0.76269714    -0.39700
C572        C  0.09065842  0.93070165  0.77681434     0.21100
N573        N  0.04563467  0.91422577  0.81091268    -0.33000
C574        C  0.05750810  0.94570870  0.80032216    -0.10500
C575        C  0.08535992  0.95668262  0.77849212    -0.29300
N576        N  0.13909246  0.89299798  0.76172820    -0.45900
C577        C  0.12890127  0.86288601  0.77627078    -0.05200
C578        C  0.09912463  0.85051290  0.79367840    -0.22600
H579        H  0.04656886  0.85648485  0.82023856     0.19200
H580        H  0.13658980  0.94941869  0.74851032     0.18000
H581        H  0.10094898  0.98127781  0.76832430     0.14300
H582        H  0.08530178  0.82778164  0.80892107     0.14200
H583        H  0.02596392  0.90057023  0.82903650     0.32300
H584        H  0.16033308  0.90822465  0.74730674     0.35100
C585        C  0.37629438  0.58821621  0.46416728     0.20700
C586        C  0.37527050  0.55870641  0.47080411    -0.39200
C587        C  0.40053170  0.55618933  0.45509829     0.19700
C588        C  0.42492116  0.58117990  0.43427972     0.22300
C589        C  0.42601515  0.61077112  0.42779965    -0.39700
C590        C  0.40072624  0.61326929  0.44358725     0.21100
N591        N  0.35409270  0.59560357  0.47373841    -0.33000
C592        C  0.36420494  0.62557578  0.45895858    -0.10500
C593        C  0.39347473  0.63746596  0.44021335    -0.29300
N594        N  0.44445920  0.57147603  0.41897335    -0.45900
C595        C  0.43232214  0.54005012  0.42991428    -0.05200
C596        C  0.40512971  0.52976408  0.45292003    -0.22600
H597        H  0.35565522  0.53867500  0.48575723     0.19200
H598        H  0.44458332  0.62989596  0.41046361     0.18000
H599        H  0.40697692  0.65993651  0.42435044     0.14300
H600        H  0.38958138  0.50542442  0.46381317     0.14200
H601        H  0.33317382  0.58070302  0.48894921     0.32300
H602        H  0.46381801  0.58468264  0.40021316     0.35100
C603        C  0.41157163  0.82958283  0.40165212     0.20700
C604        C  0.41122454  0.79973682  0.39530808    -0.39200
C605        C  0.38900587  0.77382086  0.41786079     0.19700
C606        C  0.36824282  0.77705814  0.44430936     0.22300
C607        C  0.36888478  0.80727607  0.45116722    -0.39700
C608        C  0.39161240  0.83358672  0.42894515     0.21100
N609        N  0.43160000  0.85810722  0.38518449    -0.33000
C610        C  0.42514000  0.88098244  0.40257424    -0.10500
C611        C  0.40011808  0.86667135  0.42998156    -0.29300
N612        N  0.34894399  0.74820435  0.46122979    -0.45900
C613        C  0.35787816  0.72674181  0.44570937    -0.05200
C614        C  0.38291166  0.74200333  0.41871587    -0.22600
H615        H  0.42740143  0.79703795  0.37464562     0.19200
H616        H  0.35317738  0.81018526  0.47253810     0.18000
H617        H  0.39038394  0.87900557  0.44916636     0.14300
H618        H  0.39455498  0.73102221  0.40112291     0.14200
H619        H  0.44975009  0.86216805  0.36484322     0.32300
H620        H  0.33096728  0.74348412  0.48215523     0.35100
C621        C  0.15262438  0.54488631  0.44528889     0.20700
C622        C  0.18052838  0.54396802  0.44231170    -0.39200
C623        C  0.20902075  0.57424519  0.45407393     0.19700
C624        C  0.20967513  0.60318612  0.46775060     0.22300
C625        C  0.18184202  0.60412800  0.47071047    -0.39700
C626        C  0.15338888  0.57394296  0.45884282     0.21100
N627        N  0.12302708  0.52055073  0.43161496    -0.33000
C628        C  0.10491749  0.53436145  0.43581174    -0.10500
C629        C  0.12303689  0.56754399  0.45311740    -0.29300
N630        N  0.23973685  0.62912977  0.47403716    -0.45900
C631        C  0.25863703  0.61684911  0.46407205    -0.05200
C632        C  0.24013426  0.58250714  0.45176599    -0.22600
H633        H  0.18019375  0.52168202  0.43006460     0.19200
H634        H  0.18241944  0.62706037  0.47974726     0.18000
H635        H  0.11559689  0.58540581  0.45745583     0.14300
H636        H  0.24816893  0.56600811  0.44039728     0.14200
H637        H  0.11619937  0.49698719  0.41685954     0.32300
H638        H  0.24673511  0.65379436  0.48372931     0.35100
C639        C  0.41721761  0.57076510  0.95983949     0.20700
C640        C  0.42080714  0.60203466  0.97022472    -0.39200
C641        C  0.39280932  0.60262719  0.96916593     0.19700
C642        C  0.36344801  0.57429811  0.95842819     0.22300
C643        C  0.35979262  0.54291339  0.94819245    -0.39700
C644        C  0.38781252  0.54225227  0.94949319     0.21100
N645        N  0.44052461  0.56452812  0.95339836    -0.33000
C646        C  0.42597350  0.53187816  0.93859440    -0.10500
C647        C  0.39303003  0.51697849  0.93640480    -0.29300
N648        N  0.34099804  0.58207594  0.95618073    -0.45900
C649        C  0.35614483  0.61572284  0.96538088    -0.05200
C650        C  0.38854271  0.62922485  0.97405029    -0.22600
H651        H  0.44389871  0.62453777  0.97669767     0.19200
H652        H  0.33703303  0.52093517  0.93812391     0.18000
H653        H  0.37556656  0.49208558  0.92268159     0.14300
H654        H  0.40691927  0.65515124  0.98146399     0.14200
H655        H  0.46491780  0.58206255  0.95556853     0.32300
H656        H  0.31718338  0.56552024  0.94665554     0.35100
C657        C  0.40290410  0.77427768  0.94161049     0.20700
C658        C  0.43164898  0.80505033  0.95021244    -0.39200
C659        C  0.43563189  0.83114810  0.92739449     0.19700
C660        C  0.41274189  0.82661911  0.89812457     0.22300
C661        C  0.38392862  0.79611350  0.88998925    -0.39700
C662        C  0.37987963  0.77024017  0.91298098     0.21100
N663        N  0.39340259  0.74553848  0.95869060    -0.33000
C664        C  0.36396818  0.72321125  0.94114535    -0.10500
C665        C  0.35474510  0.73782570  0.91257342    -0.29300
N666        N  0.42167653  0.85512969  0.88119557    -0.45900
C667        C  0.45029542  0.87835365  0.90004446    -0.05200
C668        C  0.45993167  0.86435606  0.92909241    -0.22600
H669        H  0.44947582  0.80845781  0.97312445     0.19200
H670        H  0.36587399  0.79284392  0.86757197     0.18000
H671        H  0.33284248  0.72611646  0.89344111     0.14300
H672        H  0.48121839  0.87694459  0.94956343     0.14200
H673        H  0.40602972  0.74146587  0.98118260     0.32300
H674        H  0.40845022  0.85886301  0.85923511     0.35100
C675        C  0.15244575  0.57713125  0.93190932     0.20700
C676        C  0.18107277  0.60682387  0.92629197    -0.39200
C677        C  0.20855990  0.60905870  0.94215214     0.19700
C678        C  0.20769321  0.58373400  0.96212953     0.22300
C679        C  0.17898031  0.55407368  0.96810063    -0.39700
C680        C  0.15140844  0.55178279  0.95218654     0.21100
N681        N  0.12349422  0.56779090  0.91630289    -0.33000
C682        C  0.10382287  0.53622990  0.92656845    -0.10500
C683        C  0.12027580  0.52546303  0.94934917    -0.29300
N684        N  0.23727801  0.59100668  0.97139591    -0.45900
C685        C  0.25727539  0.62118788  0.95696336    -0.05200
C686        C  0.23996531  0.63321661  0.93884907    -0.22600
H687        H  0.18198413  0.62623352  0.90936172     0.19200
H688        H  0.17826255  0.53377371  0.98258217     0.18000
H689        H  0.11110011  0.50097280  0.95991415     0.14300
H690        H  0.24889333  0.65574920  0.92320188     0.14200
H691        H  0.11776308  0.58144033  0.89798063     0.32300
H692        H  0.24319109  0.57585397  0.98596099     0.35100
C693        C  0.79252435  0.13790725  0.95780169     0.03500
C694        C  0.81147007  0.17188434  0.95118964    -0.12700
C695        C  0.84461045  0.18787473  0.95047939     0.01000
C696        C  0.85905543  0.16966681  0.95664045    -0.11200
C697        C  0.84068870  0.13544916  0.96249548     0.03500
C698        C  0.80744549  0.11992657  0.96344877    -0.10600
H699        H  0.80059349  0.18628500  0.94706627     0.09100
H700        H  0.88453779  0.18195468  0.95469299     0.06600
H701        H  0.79319207  0.09371778  0.96792069     0.06500
C702        C  0.79392608  0.13777875  0.46319365     0.03500
C703        C  0.80930497  0.17221645  0.45901889    -0.12700
C704        C  0.84225339  0.19137670  0.45454806     0.01000
C705        C  0.86006932  0.17607585  0.45536122    -0.11200
C706        C  0.84535512  0.14188586  0.46008795     0.03500
C707        C  0.81227573  0.12300933  0.46404113    -0.10600
H708        H  0.79556858  0.18386864  0.45676354     0.09100
H709        H  0.88551444  0.19097843  0.45241570     0.06600
H710        H  0.80057930  0.09655243  0.46683555     0.06500
C711        C  0.69869568  0.34959408  0.77180261     0.03500
C712        C  0.68075862  0.36487982  0.77133214    -0.12700
C713        C  0.64765795  0.34636267  0.77543777     0.01000
C714        C  0.63264413  0.31206656  0.78011711    -0.11200
C715        C  0.65010115  0.29633970  0.78046733     0.03500
C716        C  0.68295588  0.31511105  0.77573443    -0.10600
H717        H  0.69266966  0.39132256  0.76835924     0.09100
H718        H  0.60721907  0.29732468  0.78324063     0.09600
H719        H  0.69636643  0.30304961  0.77746747     0.06500
C720        C  0.69735214  0.34732633  0.27271904     0.03500
C721        C  0.67840482  0.31330026  0.27863024    -0.12700
C722        C  0.64532884  0.29762601  0.28038462     0.01000
C723        C  0.63106887  0.31634461  0.27647736    -0.11200
C724        C  0.64962599  0.35068169  0.27128723     0.03500
C725        C  0.68273321  0.36574984  0.26884173    -0.10600
H726        H  0.68928359  0.29870494  0.28128684     0.09100
H727        H  0.60569470  0.30428876  0.27950119     0.06600
H728        H  0.69729993  0.39204511  0.26479409     0.06500
O729        O  0.55655983  0.49579424  0.80444606    -0.79800
O730        O  0.92684590  0.45015440  0.82606670    -0.79800
O731        O  0.98972808  0.43671843  0.91548561    -0.79800
O732        O  0.98962290  0.02386117  0.78595276    -0.79700
O733        O  0.95410356  0.42224258  0.86554362    -0.79900
O734        O  0.49659337  0.98111575  0.78305875    -0.79800
O735        O  0.93516277  0.50082315  0.82834763    -0.79800
O736        O  0.52430619  0.45685034  0.84491747    -0.79800
C737        C  0.54570929  0.46713832  0.81687920     1.09900
C738        C  0.91870444  0.46990049  0.81563503     1.09800
C739        C  0.96609851  0.41391093  0.89293976     1.09900
C740        C  0.99045278  0.49999640  0.76480742     1.09800
O741        O  0.54567655  0.04730083  0.81423237    -0.79800
O742        O  0.95887011  0.46221347  0.94595565    -0.79900
O743        O  0.55266801  0.98641718  0.92252333    -0.79800
O744        O  0.97089649  0.03635477  0.90670543    -0.79800
O745        O  0.92795496  0.98622524  0.90479790    -0.79800
O746        O  0.55985085  0.02587690  0.88285231    -0.79800
O747        O  0.52582970  0.06264588  0.86573292    -0.79700
O748        O  0.50932872  0.50331582  0.94737255    -0.79800
Co749      Co  0.52530351  0.00088835  0.83344968     1.51500
Co750      Co  0.94438669  0.45660806  0.88399469     1.51700
Co751      Co  0.51654915  0.48279017  0.89567462     1.51600
Co752      Co  0.98136297  0.02947557  0.84826845     1.51500
O753        O  0.98709286  0.49259380  0.86559861    -1.41700
C754        C  0.54584988  0.07048168  0.83762470     1.09800
C755        C  0.98423299  0.48533706  0.96643945     1.09900
C756        C  0.57071133  0.01508361  0.91020204     1.09900
C757        C  0.94283997  0.01718517  0.91726628     1.09800
O758        O  0.56254143  0.50062756  0.32640218    -0.79800
O759        O  0.93030256  0.45878663  0.34869535    -0.79800
O760        O  0.96559074  0.42432696  0.36794292    -0.79800
O761        O  0.98034206  0.98142947  0.28409468    -0.79700
O762        O  0.94508330  0.43952141  0.41863709    -0.79900
O763        O  0.53040702  0.02317760  0.28476854    -0.79800
O764        O  0.93598791  0.49706800  0.30798980    -0.79800
O765        O  0.51975929  0.45063652  0.32655522    -0.79800
C766        C  0.54756299  0.46945715  0.31506594     1.09900
C767        C  0.91868147  0.46844993  0.32086868     1.09800
C768        C  0.94534952  0.41645159  0.39571752     1.09900
C769        C  0.00520014  0.49943910  0.26468989     1.09800
O770        O  0.53482654  0.06361096  0.36448945    -0.79800
O771        O  0.99303579  0.50618084  0.44865241    -0.79900
O772        O  0.55655531  0.98793817  0.40389558    -0.79800
O773        O  0.96488509  0.02845193  0.38514351    -0.79800
O774        O  0.93272754  0.98974804  0.42603007    -0.79800
O775        O  0.56409843  0.03813045  0.40431854    -0.79800
O776        O  0.49902346  0.04828656  0.31450413    -0.79700
O777        O  0.50179463  0.46467339  0.44687459    -0.79800
Co778      Co  0.54555438  0.03000780  0.34661464     1.51500
Co779      Co  0.96460301  0.48525060  0.39800243     1.51700
Co780      Co  0.50994145  0.45829863  0.38480836     1.51600
Co781      Co  0.97291665  0.00234428  0.33520640     1.51500
O782        O  0.00322210  0.49408083  0.36619767    -1.41700
C783        C  0.52269283  0.07145959  0.33671185     1.09800
C784        C  0.00003590  0.48812745  0.46742995     1.09900
C785        C  0.57305777  0.01915233  0.41512752     1.09900
C786        C  0.94361041  0.01831305  0.41328321     1.09800
C787        C  0.49430981  0.48208536  0.65424895     0.20700
C788        C  0.50037829  0.46713840  0.61827093    -0.39200
C789        C  0.50126394  0.48045838  0.58008362     0.19700
C790        C  0.99646687  0.50664668  0.57799316     0.22300
C791        C  0.99043285  0.52162729  0.61400617    -0.39700
C792        C  0.98952004  0.50828485  0.65221759     0.21100
N793        N  0.49338309  0.47472428  0.69436735    -0.33000
C794        C  0.98820508  0.49650764  0.71822354    -0.10500
C795        C  0.98547550  0.51777787  0.69302594    -0.29300
N796        N  0.99726097  0.51386827  0.53779475    -0.45900
C797        C  0.00235323  0.49196625  0.51402145    -0.05200
C798        C  0.50519435  0.47084384  0.53932818    -0.22600
H799        H  0.50407402  0.44660861  0.61990275     0.19200
H800        H  0.98669521  0.04213859  0.61235450     0.18000
H801        H  0.98248602  0.03838513  0.70336155     0.14300
H802        H  0.50808845  0.45017499  0.52906403     0.14200
H803        H  0.49742455  0.45689091  0.70507530     0.32300
H804        H  0.99318383  0.03165436  0.52697826     0.35100
C805        C  0.50671602  0.00231073  0.07687861     0.20700
C806        C  0.52794555  0.01583342  0.11247873    -0.39200
C807        C  0.51469274  0.00428842  0.15126121     0.19700
C808        C  0.98274706  0.48095396  0.15420921     0.22300
C809        C  0.96151399  0.46739097  0.11857761    -0.39700
C810        C  0.97476616  0.47899127  0.07978456     0.21100
N811        N  0.51361036  0.00862550  0.03642407    -0.33000
C812        C  0.98596106  0.48904447  0.01318817    -0.10500
C813        C  0.96109964  0.47026449  0.03919778    -0.29300
N814        N  0.97581390  0.47504884  0.19477822    -0.45900
C815        C  0.00344211  0.49499057  0.21796443    -0.05200
C816        C  0.52830683  0.01347159  0.19186567    -0.22600
H817        H  0.55292293  0.03414532  0.11016388     0.19200
H818        H  0.93650310  0.44921775  0.12092458     0.18000
H819        H  0.93665986  0.45180902  0.02954805     0.14300
H820        H  0.55268890  0.03217541  0.20146050     0.14200
H821        H  0.53607113  0.02437386  0.02509660     0.32300
H822        H  0.95333578  0.45948969  0.20618903     0.35100
C823        C  0.57685479  0.15831139  0.33000769     0.20700
C824        C  0.60581811  0.18860610  0.33813948    -0.39200
C825        C  0.61007883  0.21461568  0.31534183     0.19700
C826        C  0.58712586  0.21091417  0.28684943     0.22300
C827        C  0.55827572  0.18024929  0.27804145    -0.39700
C828        C  0.55405666  0.15398497  0.30073336     0.21100
N829        N  0.56753356  0.12990833  0.34735607    -0.33000
C830        C  0.53876473  0.10686727  0.32876052    -0.10500
C831        C  0.52941052  0.12090769  0.29939168    -0.29300
N832        N  0.59664284  0.23996285  0.27057819    -0.45900
C833        C  0.62599994  0.26207537  0.28851544    -0.05200
C834        C  0.63519535  0.24704874  0.31641818    -0.22600
H835        H  0.62372520  0.19170071  0.36068582     0.19200
H836        H  0.54044893  0.17711638  0.25534198     0.18000
H837        H  0.50802159  0.10847559  0.27913004     0.14300
H838        H  0.65699230  0.25856591  0.33574972     0.14200
H839        H  0.58058182  0.12613831  0.36956366     0.32300
H840        H  0.58403724  0.24443841  0.24854083     0.35100
C841        C  0.83934483  0.42949540  0.27729341     0.20700
C842        C  0.81319528  0.42830797  0.25810626    -0.39200
C843        C  0.78328301  0.40049089  0.26502145     0.19700
C844        C  0.77977090  0.37569826  0.28891942     0.22300
C845        C  0.80584489  0.37679276  0.30791930    -0.39700
C846        C  0.83566818  0.40461511  0.30122041     0.21100
N847        N  0.86987888  0.45477097  0.27911627    -0.33000
C848        C  0.88559641  0.44597218  0.30470017    -0.10500
C849        C  0.86509276  0.41470005  0.31867668    -0.29300
N850        N  0.74894415  0.35323750  0.29340726    -0.45900
C851        C  0.73244456  0.36378222  0.27254571    -0.05200
C852        C  0.75318213  0.39315585  0.25413588    -0.22600
H853        H  0.81583953  0.44824930  0.24062090     0.19200
H854        H  0.80301813  0.35803370  0.32790818     0.18000
H855        H  0.87060139  0.40207492  0.34092890     0.14300
H856        H  0.74718525  0.40780544  0.23631199     0.14200
H857        H  0.87907907  0.47739831  0.26587550     0.32300
H858        H  0.73989062  0.33297585  0.31156927     0.35100
C859        C  0.59902104  0.38407845  0.26721176     0.20700
C860        C  0.57012725  0.38282546  0.26530716    -0.39200
C861        C  0.57208830  0.41346441  0.27370317     0.19700
C862        C  0.60064764  0.44320538  0.28329783     0.22300
C863        C  0.62960140  0.44443436  0.28515706    -0.39700
C864        C  0.62760734  0.41370663  0.27670341     0.21100
N865        N  0.60318409  0.35809882  0.26318662    -0.33000
C866        C  0.63475197  0.37108064  0.27026264    -0.10500
C867        C  0.65071194  0.40586179  0.27865368    -0.29300
N868        N  0.59565671  0.46808555  0.29512991    -0.45900
C869        C  0.56368267  0.45389058  0.29368980    -0.05200
C870        C  0.54829013  0.41999108  0.27981575    -0.22600
H871        H  0.54761032  0.35949353  0.25957845     0.19200
H872        H  0.65185938  0.46737954  0.29424723     0.18000
H873        H  0.67563627  0.42314204  0.28694174     0.14300
H874        H  0.52302005  0.40187223  0.27864326     0.14200
H875        H  0.58531681  0.33306212  0.25645319     0.32300
H876        H  0.61271144  0.49234225  0.30738677     0.35100
C877        C  0.58052293  0.15780215  0.83270698     0.20700
C878        C  0.58173682  0.18807241  0.84041656    -0.39200
C879        C  0.60360952  0.21392111  0.81742175     0.19700
C880        C  0.62327206  0.21022273  0.78927611     0.22300
C881        C  0.62180433  0.17962496  0.78113257    -0.39700
C882        C  0.59942524  0.15340253  0.80383451     0.21100
N883        N  0.56061792  0.12928090  0.84937273    -0.33000
C884        C  0.56617060  0.10603669  0.83070306    -0.10500
C885        C  0.59039822  0.12010677  0.80207910    -0.29300
N886        N  0.64233177  0.23901485  0.77205133    -0.45900
C887        C  0.63430443  0.26089114  0.78905334    -0.05200
C888        C  0.61016976  0.24599818  0.81737245    -0.22600
H889        H  0.56640075  0.19112796  0.86237048     0.19200
H890        H  0.63664361  0.17637349  0.75847366     0.18000
H891        H  0.59932031  0.10750491  0.78174287     0.14300
H892        H  0.59937686  0.25736836  0.83619944     0.14200
H893        H  0.54318481  0.12551560  0.87086488     0.32300
H894        H  0.65953534  0.24342913  0.74993948     0.35100
C895        C  0.78227438  0.41167185  0.77770953     0.20700
C896        C  0.80964752  0.44321267  0.78823262    -0.39200
C897        C  0.83865228  0.44467980  0.78491236     0.19700
C898        C  0.84014428  0.41674314  0.77238145     0.22300
C899        C  0.81279996  0.38530091  0.76177464    -0.39700
C900        C  0.78389110  0.38391328  0.76489987     0.21100
N901        N  0.75190303  0.40324696  0.78090079    -0.33000
C902        C  0.73390403  0.36977261  0.77005022    -0.10500
C903        C  0.75324130  0.35698057  0.75971276    -0.29300
N904        N  0.86989338  0.42345723  0.77754495    -0.45900
C905        C  0.88750225  0.45575527  0.79395080    -0.05200
C906        C  0.86897611  0.47008213  0.79812534    -0.22600
H907        H  0.80839722  0.46468679  0.79991505     0.19200
H908        H  0.81389822  0.36322059  0.75358346     0.18000
H909        H  0.74607665  0.33133786  0.75048440     0.14300
H910        H  0.87590602  0.49441145  0.81359062     0.14200
H911        H  0.74421589  0.41926007  0.79160914     0.32300
H912        H  0.87714154  0.40625385  0.77390514     0.35100
C913        C  0.56599263  0.40525717  0.79669693     0.20700
C914        C  0.56542968  0.37601938  0.80369505    -0.39200
C915        C  0.59153957  0.37436473  0.78957391     0.19700
C916        C  0.61631236  0.39983903  0.76997758     0.22300
C917        C  0.61680400  0.42902642  0.76271977    -0.39700
C918        C  0.59068186  0.43071594  0.77683125     0.21100
N919        N  0.54565886  0.41424451  0.81092845    -0.33000
C920        C  0.55753326  0.44572575  0.80033169    -0.10500
C921        C  0.58538464  0.45669730  0.77850231    -0.29300
N922        N  0.63911750  0.39301392  0.76177008    -0.45900
C923        C  0.62892739  0.36290567  0.77632328    -0.05200
C924        C  0.59915188  0.35053571  0.79373267    -0.22600
H925        H  0.54659429  0.35650850  0.82027725     0.19200
H926        H  0.63661310  0.44942944  0.74852919     0.18000
H927        H  0.60097480  0.48129162  0.76833259     0.14300
H928        H  0.58532970  0.32780748  0.80898158     0.14200
H929        H  0.52598909  0.40059207  0.82905525     0.32300
H930        H  0.66035667  0.40823733  0.74734382     0.35100
C931        C  0.87629574  0.08822153  0.46417735     0.20700
C932        C  0.87526922  0.05870963  0.47081035    -0.39200
C933        C  0.90052404  0.05618693  0.45508852     0.19700
C934        C  0.92490805  0.08117347  0.43426042     0.22300
C935        C  0.92600414  0.11076608  0.42778291    -0.39700
C936        C  0.90072175  0.11326976  0.44358600     0.21100
N937        N  0.85409949  0.09561468  0.47376576    -0.33000
C938        C  0.86421180  0.12558688  0.45898322    -0.10500
C939        C  0.89347355  0.13746965  0.44022048    -0.29300
N940        N  0.94444272  0.07146676  0.41894428    -0.45900
C941        C  0.93230804  0.04004222  0.42989226    -0.05200
C942        C  0.90512061  0.02976023  0.45290709    -0.22600
H943        H  0.85565801  0.03868184  0.48577282     0.19200
H944        H  0.94456852  0.12988763  0.41043990     0.18000
H945        H  0.90697213  0.15993721  0.42435075     0.14300
H946        H  0.88957582  0.00542342  0.46380986     0.14200
H947        H  0.83319116  0.08072279  0.48898323     0.32300
H948        H  0.96379254  0.08466673  0.40018473     0.35100
C949        C  0.91157058  0.32958705  0.40165542     0.20700
C950        C  0.91122313  0.29974078  0.39531127    -0.39200
C951        C  0.88900955  0.27382761  0.41787215     0.19700
C952        C  0.86825388  0.27706901  0.44433210     0.22300
C953        C  0.86889561  0.30728670  0.45118836    -0.39700
C954        C  0.89161522  0.33359308  0.42895378     0.21100
N955        N  0.93159393  0.35810914  0.38517906    -0.33000
C956        C  0.92513223  0.38098407  0.40256544    -0.10500
C957        C  0.90011545  0.36667541  0.42998059    -0.29300
N958        N  0.84895947  0.24821800  0.46126001    -0.45900
C959        C  0.85788748  0.22675252  0.44573120    -0.05200
C960        C  0.88291355  0.24200924  0.41872565    -0.22600
H961        H  0.92739497  0.29703914  0.37464139     0.19200
H962        H  0.85319251  0.31019820  0.47256539     0.18000
H963        H  0.89038185  0.37901039  0.44916495     0.14300
H964        H  0.89455042  0.23102432  0.40112462     0.14200
H965        H  0.94974053  0.36216857  0.36483355     0.32300
H966        H  0.83098747  0.24350044  0.48219521     0.35100
C967        C  0.65263982  0.04489743  0.44529290     0.20700
C968        C  0.68054393  0.04397926  0.44232232    -0.39200
C969        C  0.70903432  0.07425814  0.45408619     0.19700
C970        C  0.70968494  0.10319614  0.46775596     0.22300
C971        C  0.68185274  0.10413981  0.47070801    -0.39700
C972        C  0.65340129  0.07395260  0.45883956     0.21100
N973        N  0.62304214  0.02055680  0.43162187    -0.33000
C974        C  0.60493072  0.03436668  0.43581619    -0.10500
C975        C  0.62304828  0.06755026  0.45311428    -0.29300
N976        N  0.73974716  0.12914410  0.47405134    -0.45900
C977        C  0.75864843  0.11686065  0.46409460    -0.05200
C978        C  0.74014851  0.08252084  0.45178877    -0.22600
H979        H  0.68021174  0.02169361  0.43008286     0.19200
H980        H  0.68242762  0.12707025  0.47974126     0.18000
H981        H  0.61560586  0.08541020  0.45744995     0.14300
H982        H  0.74818521  0.06602211  0.44042675     0.14200
H983        H  0.61621844  0.99700164  0.41687874     0.32300
H984        H  0.74673699  0.15378557  0.48373350     0.35100
C985        C  0.91720381  0.07077385  0.95982823     0.20700
C986        C  0.92079342  0.10204153  0.97023780    -0.39200
C987        C  0.89279569  0.10263536  0.96918352     0.19700
C988        C  0.86343608  0.07430978  0.95842356     0.22300
C989        C  0.85978109  0.04292821  0.94816363    -0.39700
C990        C  0.88779934  0.04226507  0.94946436     0.21100
N991        N  0.94050985  0.06453433  0.95339115    -0.33000
C992        C  0.92595731  0.03188594  0.93857678    -0.10500
C993        C  0.89301497  0.01699121  0.93637165    -0.29300
N994        N  0.84098615  0.08208770  0.95618668    -0.45900
C995        C  0.85612993  0.11573103  0.96541746    -0.05200
C996        C  0.88852675  0.12923142  0.97409555    -0.22600
H997        H  0.94388434  0.12454199  0.97673004     0.19200
H998        H  0.83702243  0.02095340  0.93808246     0.18000
H999        H  0.87555159  0.99210075  0.92264102     0.14300
H1000       H  0.90690051  0.15515623  0.98153153     0.14200
H1001       H  0.96490363  0.08206522  0.95557756     0.32300
H1002       H  0.81717361  0.06553547  0.94664786     0.35100
C1003       C  0.90287566  0.27428333  0.94167471     0.20700
C1004       C  0.93162947  0.30505057  0.95025400    -0.39200
C1005       C  0.93560993  0.33114842  0.92743798     0.19700
C1006       C  0.91270943  0.32662443  0.89819030     0.22300
C1007       C  0.88388676  0.29612475  0.89007945    -0.39700
C1008       C  0.87984038  0.27025140  0.91306954     0.21100
N1009       N  0.89337876  0.24554228  0.95874754    -0.33000
C1010       C  0.86393685  0.22321872  0.94122146    -0.10500
C1011       C  0.85470357  0.23783869  0.91267117    -0.29300
N1012       N  0.92164899  0.35513174  0.88124863    -0.45900
C1013       C  0.95028230  0.37834905  0.90006703    -0.05200
C1014       C  0.95992133  0.36435025  0.92910970    -0.22600
H1015       H  0.94946667  0.30845292  0.97314405     0.19200
H1016       H  0.86582551  0.29285818  0.86767657     0.18000
H1017       H  0.83279486  0.22613272  0.89355284     0.14300
H1018       H  0.98122062  0.37693374  0.94955627     0.14200
H1019       H  0.90601583  0.24146522  0.98121863     0.32300
H1020       H  0.90841906  0.35886734  0.85929675     0.35100
C1021       C  0.65242363  0.07713235  0.93198193     0.20700
C1022       C  0.68105167  0.10682252  0.92636462    -0.39200
C1023       C  0.70853733  0.10905116  0.94221607     0.19700
C1024       C  0.70766965  0.08372359  0.96218733     0.22300
C1025       C  0.67895484  0.05406482  0.96816019    -0.39700
C1026       C  0.65138343  0.05177961  0.95225254     0.21100
N1027       N  0.62347445  0.06779615  0.91637168    -0.33000
C1028       C  0.60380098  0.03623267  0.92662536    -0.10500
C1029       C  0.62024990  0.02546077  0.94940641    -0.29300
N1030       N  0.73725494  0.09099437  0.97144872    -0.45900
C1031       C  0.75725202  0.12117798  0.95702049    -0.05200
C1032       C  0.73994185  0.13320799  0.93891133    -0.22600
H1033       H  0.68196486  0.12623485  0.90943845     0.19200
H1034       H  0.67823527  0.03376180  0.98263599     0.18000
H1035       H  0.61107218  0.00096686  0.95996053     0.14300
H1036       H  0.74886905  0.15574256  0.92326900     0.14200
H1037       H  0.61774724  0.08144862  0.89804957     0.32300
H1038       H  0.74316873  0.07584077  0.98601001     0.35100
C1039       C  0.79255747  0.63791655  0.95774481     0.03500
C1040       C  0.81150789  0.67189102  0.95112255    -0.12700
C1041       C  0.84464800  0.68787519  0.95041252     0.01000
C1042       C  0.85908804  0.66966414  0.95658380    -0.11200
C1043       C  0.84071689  0.63544825  0.96244722     0.03500
C1044       C  0.80747407  0.61993192  0.96340126    -0.10600
H1045       H  0.80063514  0.68629423  0.94699008     0.09100
H1046       H  0.88457013  0.68194805  0.95463629     0.06600
H1047       H  0.79321766  0.59372457  0.96788005     0.06500
C1048       C  0.79391817  0.63776838  0.46317703     0.03500
C1049       C  0.80929321  0.67220559  0.45899700    -0.12700
C1050       C  0.84224047  0.69136853  0.45451777     0.01000
C1051       C  0.86006013  0.67607126  0.45532698    -0.11200
C1052       C  0.84535091  0.64188242  0.46005899     0.03500
C1053       C  0.81227159  0.62300294  0.46401966    -0.10600
H1054       H  0.79555435  0.68385508  0.45674517     0.09100
H1055       H  0.88550455  0.69097604  0.45237541     0.06600
H1056       H  0.80057863  0.59654671  0.46681827     0.06500
C1057       C  0.69867128  0.84958927  0.77174047     0.03500
C1058       C  0.68073247  0.86487350  0.77126782    -0.12700
C1059       C  0.64763047  0.84635287  0.77536529     0.01000
C1060       C  0.63261785  0.81205629  0.78004038    -0.11200
C1061       C  0.65007637  0.79633157  0.78039453     0.03500
C1062       C  0.68293198  0.81510547  0.77566778    -0.10600
H1063       H  0.69264296  0.89131720  0.76830010     0.09100
H1064       H  0.60719226  0.79731227  0.78315846     0.09600
H1065       H  0.69634385  0.80304565  0.77740368     0.06500
C1066       C  0.69735398  0.84732626  0.27269120     0.03500
C1067       C  0.67840767  0.81330126  0.27860508    -0.12700
C1068       C  0.64533258  0.79762688  0.28036022     0.01000
C1069       C  0.63107076  0.81634307  0.27644774    -0.11200
C1070       C  0.64962631  0.85067976  0.27125403     0.03500
C1071       C  0.68273424  0.86574899  0.26880993    -0.10600
H1072       H  0.68928654  0.79870627  0.28126405     0.09100
H1073       H  0.60569648  0.80428549  0.27947108     0.06600
H1074       H  0.69730079  0.89204393  0.26476049     0.06500
O1075       O  0.55654564  0.99578947  0.80445698    -0.79800
O1076       O  0.92682762  0.95015899  0.82607934    -0.79800
O1077       O  0.98971206  0.93673330  0.91550094    -0.79800
O1078       O  0.98963960  0.52385225  0.78595362    -0.79700
O1079       O  0.95408994  0.92225625  0.86555630    -0.79900
O1080       O  0.49660580  0.48111845  0.78305503    -0.79800
O1081       O  0.93514270  0.00082640  0.82834772    -0.79800
O1082       O  0.52429064  0.95684187  0.84492306    -0.79800
C1083       C  0.54569228  0.96713077  0.81688237     1.09900
C1084       C  0.91868420  0.96990205  0.81564243     1.09800
C1085       C  0.96608886  0.91392544  0.89294720     1.09900
C1086       C  0.99044077  0.00000790  0.76480746     1.09800
O1087       O  0.54569068  0.54730625  0.81421796    -0.79800
O1088       O  0.95886225  0.96223516  0.94596873    -0.79900
O1089       O  0.55269531  0.48643266  0.92250953    -0.79800
O1090       O  0.97091343  0.53634246  0.90670845    -0.79800
O1091       O  0.92797010  0.48621258  0.90479180    -0.79800
O1092       O  0.55987177  0.52588872  0.88283671    -0.79800
O1093       O  0.52584365  0.56265559  0.86571515    -0.79700
O1094       O  0.50930036  0.00329936  0.94737763    -0.79800
Co1095     Co  0.52531981  0.50089585  0.83344098     1.51500
Co1096     Co  0.94437307  0.95662129  0.88400688     1.51700
Co1097     Co  0.51652703  0.98277803  0.89568045     1.51600
Co1098     Co  0.98138199  0.52946763  0.84826942     1.51500
O1099       O  0.98707715  0.99260499  0.86560522    -1.41700
C1100       C  0.54586398  0.57048859  0.83760690     1.09800
C1101       C  0.98422723  0.98535927  0.96644914     1.09900
C1102       C  0.57073715  0.51509761  0.91018255     1.09900
C1103       C  0.94285649  0.51717116  0.91726929     1.09800
O1104       O  0.56253772  0.00061603  0.32638506    -0.79800
O1105       O  0.93030044  0.95878238  0.34869477    -0.79800
O1106       O  0.96558585  0.92432234  0.36793907    -0.79800
O1107       O  0.98033641  0.48143165  0.28409431    -0.79700
O1108       O  0.94507967  0.93951639  0.41863533    -0.79900
O1109       O  0.53042349  0.52320481  0.28478169    -0.79800
O1110       O  0.93598864  0.99706133  0.30798203    -0.79800
O1111       O  0.51975781  0.95062494  0.32654825    -0.79800
C1112       C  0.54755854  0.96944568  0.31504930     1.09900
C1113       C  0.91868085  0.96844463  0.32086477     1.09800
C1114       C  0.94533977  0.91644633  0.39570733     1.09900
C1115       C  0.00520730  0.99943763  0.26469315     1.09800
O1116       O  0.53483248  0.56362477  0.36450748    -0.79800
O1117       O  0.99303483  0.00618091  0.44864779    -0.79900
O1118       O  0.55654626  0.48793838  0.40391181    -0.79800
O1119       O  0.96489503  0.52846046  0.38514946    -0.79800
O1120       O  0.93273253  0.48975576  0.42603240    -0.79800
O1121       O  0.56409878  0.53813487  0.40433771    -0.79800
O1122       O  0.49903163  0.54830451  0.31451749    -0.79700
O1123       O  0.50180805  0.96466692  0.44687534    -0.79800
Co1124     Co  0.54556019  0.53002156  0.34663087     1.51500
Co1125     Co  0.96460083  0.98524672  0.39800114     1.51700
Co1126     Co  0.50994825  0.95829092  0.38480526     1.51600
Co1127     Co  0.97291745  0.50234983  0.33520833     1.51500
O1128       O  0.00322042  0.99407489  0.36619806    -1.41700
C1129       C  0.52269949  0.57147515  0.33673063     1.09800
C1130       C  0.00003671  0.98812991  0.46742700     1.09900
C1131       C  0.57305165  0.51915180  0.41514876     1.09900
C1132       C  0.94362255  0.51832406  0.41329224     1.09800
C1133       C  0.49428304  0.98206866  0.65425249     0.20700
C1134       C  0.50034944  0.96711636  0.61827756    -0.39200
C1135       C  0.50124616  0.98043911  0.58008829     0.19700
C1136       C  0.99646962  0.00665897  0.57798737     0.22300
C1137       C  0.99042653  0.02163537  0.61399683    -0.39700
C1138       C  0.98951701  0.00829743  0.65221161     0.21100
N1139       N  0.49335140  0.97470803  0.69437217    -0.33000
C1140       C  0.98820233  0.99652342  0.71822130    -0.10500
C1141       C  0.98546434  0.01778663  0.69301875    -0.29300
N1142       N  0.99726319  0.01387725  0.53778718    -0.45900
C1143       C  0.00236072  0.99197715  0.51401823    -0.05200
C1144       C  0.50518218  0.97082410  0.53933522    -0.22600
H1145       H  0.50403742  0.94658171  0.61991351     0.19200
H1146       H  0.98671055  0.54213708  0.61236887     0.18000
H1147       H  0.98250974  0.53838414  0.70337291     0.14300
H1148       H  0.50807221  0.95015194  0.52907493     0.14200
H1149       H  0.49738420  0.95686944  0.70508211     0.32300
H1150       H  0.99318776  0.53165140  0.52698967     0.35100
C1151       C  0.50674337  0.50235042  0.07687868     0.20700
C1152       C  0.52797104  0.51588426  0.11248183    -0.39200
C1153       C  0.51471908  0.50433698  0.15126475     0.19700
C1154       C  0.98275724  0.98095873  0.15421331     0.22300
C1155       C  0.96152324  0.96739769  0.11858357    -0.39700
C1156       C  0.97477259  0.97900574  0.07979274     0.21100
N1157       N  0.51363714  0.50866216  0.03642274    -0.33000
C1158       C  0.98596089  0.98906697  0.01319802    -0.10500
C1159       C  0.96110339  0.97028081  0.03920846    -0.29300
N1160       N  0.97582458  0.97504758  0.19478089    -0.45900
C1161       C  0.00345201  0.99499098  0.21796799    -0.05200
C1162       C  0.52833121  0.51352126  0.19187145    -0.22600
H1163       H  0.55294650  0.53420376  0.11016835     0.19200
H1164       H  0.93651350  0.94922038  0.12093015     0.18000
H1165       H  0.93666438  0.95182140  0.02956026     0.14300
H1166       H  0.55271146  0.53222942  0.20146914     0.14200
H1167       H  0.53609609  0.52441822  0.02509577     0.32300
H1168       H  0.95334835  0.95948586  0.20618964     0.35100
C1169       C  0.57686077  0.65832588  0.33002581     0.20700
C1170       C  0.60582418  0.68862137  0.33815410    -0.39200
C1171       C  0.61008675  0.71462581  0.31534327     0.19700
C1172       C  0.58713587  0.71091800  0.28684151     0.22300
C1173       C  0.55828682  0.68025283  0.27803733    -0.39700
C1174       C  0.55406542  0.65399473  0.30074295     0.21100
N1175       N  0.56753765  0.62992537  0.34738228    -0.33000
C1176       C  0.53877075  0.60688262  0.32878265    -0.10500
C1177       C  0.52941960  0.62091866  0.29940446    -0.29300
N1178       N  0.59665252  0.73996194  0.27055853    -0.45900
C1179       C  0.62600705  0.76207852  0.28849848    -0.05200
C1180       C  0.63520224  0.74705900  0.31641333    -0.22600
H1181       H  0.62372960  0.69172022  0.36070685     0.19200
H1182       H  0.54046229  0.67711510  0.25533007     0.18000
H1183       H  0.50803408  0.60848348  0.27913596     0.14300
H1184       H  0.65699767  0.75858130  0.33574917     0.14200
H1185       H  0.58058406  0.62615723  0.36959494     0.32300
H1186       H  0.58404778  0.74443223  0.24851319     0.35100
C1187       C  0.83934599  0.92949070  0.27728483     0.20700
C1188       C  0.81319864  0.92830303  0.25809076    -0.39200
C1189       C  0.78328547  0.90048661  0.26500257     0.19700
C1190       C  0.77977055  0.87569379  0.28890229     0.22300
C1191       C  0.80584247  0.87678817  0.30790918    -0.39700
C1192       C  0.83566677  0.90461115  0.30121544     0.21100
N1193       N  0.86988026  0.95476514  0.27910851    -0.33000
C1194       C  0.88559570  0.94596716  0.30469701    -0.10500
C1195       C  0.86509029  0.91469619  0.31867614    -0.29300
N1196       N  0.74894308  0.85323389  0.29338588    -0.45900
C1197       C  0.73244613  0.86378029  0.27252100    -0.05200
C1198       C  0.75318595  0.89315311  0.25411189    -0.22600
H1199       H  0.81584514  0.94824391  0.24060238     0.19200
H1200       H  0.80301332  0.85802857  0.32789888     0.18000
H1201       H  0.87059744  0.90207139  0.34093072     0.14300
H1202       H  0.74719135  0.90780353  0.23628598     0.14200
H1203       H  0.87908239  0.97739146  0.26586349     0.32300
H1204       H  0.73988769  0.83297271  0.31154843     0.35100
C1205       C  0.59901489  0.88406998  0.26718097     0.20700
C1206       C  0.57011944  0.88281414  0.26528700    -0.39200
C1207       C  0.57207958  0.91345330  0.27367278     0.19700
C1208       C  0.60063963  0.94319726  0.28324902     0.22300
C1209       C  0.62959493  0.94442886  0.28509972    -0.39700
C1210       C  0.62760186  0.91370090  0.27665502     0.21100
N1211       N  0.60317970  0.85809149  0.26316279    -0.33000
C1212       C  0.63474949  0.87107641  0.27022566    -0.10500
C1213       C  0.65070867  0.90585875  0.27860129    -0.29300
N1214       N  0.59564877  0.96807766  0.29508024    -0.45900
C1215       C  0.56367432  0.95387950  0.29366031    -0.05200
C1216       C  0.54828118  0.91997807  0.27979723    -0.22600
H1217       H  0.54760232  0.85948030  0.25957479     0.19200
H1218       H  0.65185361  0.96737638  0.29417862     0.18000
H1219       H  0.67563431  0.92314209  0.28687734     0.14300
H1220       H  0.52301202  0.90185703  0.27864370     0.14200
H1221       H  0.58531153  0.83305310  0.25644301     0.32300
H1222       H  0.61270498  0.99233661  0.30732713     0.35100
C1223       C  0.58052885  0.65780526  0.83267297     0.20700
C1224       C  0.58173327  0.68807130  0.84037089    -0.39200
C1225       C  0.60359477  0.71391596  0.81736152     0.19700
C1226       C  0.62325706  0.71021820  0.78921481     0.22300
C1227       C  0.62179784  0.67962400  0.78108173    -0.39700
C1228       C  0.59942862  0.65340488  0.80379671     0.21100
N1229       N  0.56063204  0.62928709  0.84935002    -0.33000
C1230       C  0.56618496  0.60604284  0.83068169    -0.10500
C1231       C  0.59040723  0.62011087  0.80204950    -0.29300
N1232       N  0.64231079  0.73900829  0.77198261    -0.45900
C1233       C  0.63428008  0.76088277  0.78898054    -0.05200
C1234       C  0.61014767  0.74599002  0.81730321    -0.22600
H1235       H  0.56639838  0.69112649  0.86232751     0.19200
H1236       H  0.63663636  0.67637275  0.75842122     0.18000
H1237       H  0.59932675  0.60750794  0.78171014     0.14300
H1238       H  0.59935465  0.75735988  0.83613066     0.14200
H1239       H  0.54320079  0.62552248  0.87084548     0.32300
H1240       H  0.65951534  0.74342352  0.74987157     0.35100
C1241       C  0.78225136  0.91166608  0.77769583     0.20700
C1242       C  0.80962264  0.94320351  0.78824318    -0.39200
C1243       C  0.83862838  0.94467279  0.78492563     0.19700
C1244       C  0.84012395  0.91674061  0.77237970     0.22300
C1245       C  0.81278116  0.88530084  0.76174866    -0.39700
C1246       C  0.78387064  0.88391179  0.76486746     0.21100
N1247       N  0.75187882  0.90324043  0.78087532    -0.33000
C1248       C  0.73388091  0.86976950  0.76999939    -0.10500
C1249       C  0.75322037  0.85698082  0.75965568    -0.29300
N1250       N  0.86987423  0.92345664  0.77754426    -0.45900
C1251       C  0.88747984  0.95575264  0.79396135    -0.05200
C1252       C  0.86895026  0.97007463  0.79814588    -0.22600
H1253       H  0.80837004  0.96467405  0.79993714     0.19200
H1254       H  0.81388113  0.86322334  0.75354094     0.18000
H1255       H  0.74605615  0.83134053  0.75040916     0.14300
H1256       H  0.87587750  0.99440115  0.81361825     0.14200
H1257       H  0.74418919  0.91924935  0.79159305     0.32300
H1258       H  0.87712592  0.90625672  0.77389204     0.35100
C1259       C  0.56596108  0.90524047  0.79665303     0.20700
C1260       C  0.56539858  0.87600116  0.80364097    -0.39200
C1261       C  0.59150553  0.87434586  0.78950676     0.19700
C1262       C  0.61627455  0.89982015  0.76990544     0.22300
C1263       C  0.61676500  0.92900840  0.76265617    -0.39700
C1264       C  0.59064677  0.93069951  0.77678321     0.21100
N1265       N  0.54563379  0.91423117  0.81090483    -0.33000
C1266       C  0.55750946  0.94571523  0.80031802    -0.10500
C1267       C  0.58535420  0.95668465  0.77847341    -0.29300
N1268       N  0.63908102  0.89299753  0.76169321    -0.45900
C1269       C  0.62889580  0.86289135  0.77624928    -0.05200
C1270       C  0.59912166  0.85051952  0.79366379    -0.22600
H1271       H  0.54656767  0.85649123  0.82022948     0.19200
H1272       H  0.63657246  0.94941250  0.74846486     0.18000
H1273       H  0.60094420  0.98128000  0.76830640     0.14300
H1274       H  0.58530444  0.82779336  0.80891849     0.14200
H1275       H  0.52596862  0.90057916  0.82903880     0.32300
H1276       H  0.66031918  0.90822204  0.74726585     0.35100
C1277       C  0.87630600  0.58823122  0.46416695     0.20700
C1278       C  0.87528851  0.55872659  0.47081621    -0.39200
C1279       C  0.90054557  0.55620591  0.45510018     0.19700
C1280       C  0.92492523  0.58118815  0.43425970     0.22300
C1281       C  0.92601208  0.61077377  0.42776527    -0.39700
C1282       C  0.90072753  0.61327583  0.44356392     0.21100
N1283       N  0.85410799  0.59562170  0.47375095    -0.33000
C1284       C  0.86421194  0.62558739  0.45895676    -0.10500
C1285       C  0.89347271  0.63747022  0.44018824    -0.29300
N1286       N  0.94445983  0.57148071  0.41894901    -0.45900
C1287       C  0.93233025  0.54006061  0.42990815    -0.05200
C1288       C  0.90514645  0.52978257  0.45293095    -0.22600
H1289       H  0.85568085  0.53870145  0.48578776     0.19200
H1290       H  0.94457235  0.62989193  0.41041288     0.18000
H1291       H  0.90696657  0.65993468  0.42431127     0.14300
H1292       H  0.88960426  0.50544798  0.46384097     0.14200
H1293       H  0.83319657  0.58072766  0.48898046     0.32300
H1294       H  0.96381102  0.58468050  0.40017285     0.35100
C1295       C  0.91153297  0.82957285  0.40160137     0.20700
C1296       C  0.91118945  0.79972857  0.39526047    -0.39200
C1297       C  0.88898049  0.77381613  0.41782605     0.19700
C1298       C  0.86822311  0.77705503  0.44428463     0.22300
C1299       C  0.86886225  0.80727157  0.45114091    -0.39700
C1300       C  0.89158009  0.83357883  0.42890509     0.21100
N1301       N  0.93155912  0.85809677  0.38513154    -0.33000
C1302       C  0.92510677  0.88097501  0.40253221    -0.10500
C1303       C  0.90008822  0.86666464  0.42994547    -0.29300
N1304       N  0.84893358  0.74820476  0.46121763    -0.45900
C1305       C  0.85786838  0.72674314  0.44569530    -0.05200
C1306       C  0.88289275  0.74200145  0.41868788    -0.22600
H1307       H  0.92736375  0.79702938  0.37459277     0.19200
H1308       H  0.85316156  0.81018297  0.47252279     0.18000
H1309       H  0.89036256  0.87900161  0.44914316     0.14300
H1310       H  0.89453391  0.73101983  0.40109045     0.14200
H1311       H  0.94970855  0.86215701  0.36478637     0.32300
H1312       H  0.83096259  0.74348626  0.48215213     0.35100
C1313       C  0.65262727  0.54488273  0.44533206     0.20700
C1314       C  0.68053150  0.54396374  0.44236271    -0.39200
C1315       C  0.70902441  0.57424396  0.45411354     0.19700
C1316       C  0.70967865  0.60318774  0.46777237     0.22300
C1317       C  0.68184593  0.60413018  0.47072438    -0.39700
C1318       C  0.65339280  0.57394259  0.45886925     0.21100
N1319       N  0.62302890  0.52054469  0.43166433    -0.33000
C1320       C  0.60492062  0.53435788  0.43584837    -0.10500
C1321       C  0.62304136  0.56754324  0.45314171    -0.29300
N1322       N  0.73973983  0.62913315  0.47404939    -0.45900
C1323       C  0.75864052  0.61685147  0.46409495    -0.05200
C1324       C  0.74013829  0.58250653  0.45180662    -0.22600
H1325       H  0.68019663  0.52167490  0.43012928     0.19200
H1326       H  0.68242353  0.62706451  0.47974623     0.18000
H1327       H  0.61560297  0.58540689  0.45746720     0.14300
H1328       H  0.74817316  0.56600554  0.44044849     0.14200
H1329       H  0.61620007  0.49697791  0.41691875     0.32300
H1330       H  0.74673694  0.65379951  0.48372769     0.35100
C1331       C  0.91722126  0.57075974  0.95983345     0.20700
C1332       C  0.92081258  0.60202999  0.97022562    -0.39200
C1333       C  0.89281649  0.60262653  0.96915919     0.19700
C1334       C  0.86345619  0.57430128  0.95840286     0.22300
C1335       C  0.85979926  0.54291677  0.94815917    -0.39700
C1336       C  0.88781629  0.54225080  0.94947286     0.21100
N1337       N  0.94052677  0.56451840  0.95340242    -0.33000
C1338       C  0.92597438  0.53186945  0.93859097    -0.10500
C1339       C  0.89303162  0.51697493  0.93638829    -0.29300
N1340       N  0.84100808  0.58208177  0.95615583    -0.45900
C1341       C  0.85615423  0.61572640  0.96537763    -0.05200
C1342       C  0.88855035  0.62922473  0.97405838    -0.22600
H1343       H  0.94390412  0.62453039  0.97671351     0.19200
H1344       H  0.83704041  0.52094167  0.93807959     0.18000
H1345       H  0.87556817  0.49208455  0.92265756     0.14300
H1346       H  0.90692555  0.65514946  0.98149041     0.14200
H1347       H  0.96492065  0.58204990  0.95558349     0.32300
H1348       H  0.81719517  0.56553023  0.94661916     0.35100
C1349       C  0.90291376  0.77428241  0.94160261     0.20700
C1350       C  0.93165721  0.80505674  0.95020358    -0.39200
C1351       C  0.93563414  0.83115496  0.92739168     0.19700
C1352       C  0.91274115  0.82662449  0.89812586     0.22300
C1353       C  0.88392997  0.79611681  0.88999021    -0.39700
C1354       C  0.87988589  0.77024372  0.91297840     0.21100
N1355       N  0.89341538  0.74554339  0.95868181    -0.33000
C1356       C  0.86397921  0.72321541  0.94114194    -0.10500
C1357       C  0.85475242  0.73782915  0.91257393    -0.29300
N1358       N  0.92167071  0.85513577  0.88120177    -0.45900
C1359       C  0.95028951  0.87836126  0.90004982    -0.05200
C1360       C  0.95993025  0.86436446  0.92909266    -0.22600
H1361       H  0.94948673  0.80846564  0.97311200     0.19200
H1362       H  0.86587261  0.79284590  0.86757685     0.18000
H1363       H  0.83284731  0.72611970  0.89344707     0.14300
H1364       H  0.98121859  0.87695401  0.94956054     0.14200
H1365       H  0.90604502  0.74147187  0.98117106     0.32300
H1366       H  0.90844208  0.85886792  0.85924389     0.35100
C1367       C  0.65245351  0.57714965  0.93194067     0.20700
C1368       C  0.68108188  0.60683801  0.92631351    -0.39200
C1369       C  0.70856937  0.60906918  0.94216524     0.19700
C1370       C  0.70770185  0.58374588  0.96214696     0.22300
C1371       C  0.67898722  0.55409052  0.96813106    -0.39700
C1372       C  0.65141482  0.55180219  0.95222210     0.21100
N1373       N  0.62350284  0.56780911  0.91633023    -0.33000
C1374       C  0.60383006  0.53624862  0.92659567    -0.10500
C1375       C  0.62028135  0.52548272  0.94938303    -0.29300
N1376       N  0.73728682  0.59101512  0.97140591    -0.45900
C1377       C  0.75728506  0.62119331  0.95696613    -0.05200
C1378       C  0.73997523  0.63322236  0.93885147    -0.22600
H1379       H  0.68199384  0.62624599  0.90937877     0.19200
H1380       H  0.67826855  0.53379096  0.98261494     0.18000
H1381       H  0.61110500  0.50099211  0.95994724     0.14300
H1382       H  0.74890341  0.65575340  0.92320075     0.14200
H1383       H  0.61777386  0.58145684  0.89800139     0.32300
H1384       H  0.74319968  0.57586325  0.98597403     0.35100
loop_ 
_geom_bond_atom_site_label_1 
_geom_bond_atom_site_label_2 
_geom_bond_distance 
_geom_bond_site_symmetry_2 
_ccdc_geom_bond_type 
C1            C2   1.407       .  A
C1            C6   1.409       .  A
C1          C339   1.492       .  S
C2            C3   1.402       .  A
C2            H7   1.081       .  S
C3            C4   1.401       .  A
C3          C318   1.482       .  S
C4            C5   1.409       .  A
C4            H8   1.081       .  S
C5            C6   1.409       .  A
C5          C303   1.491       .  S
C6            H9   1.079       .  S
C10          C11   1.408       .  A
C10          C15   1.407       .  A
C10         C285   1.491       .  S
C11          C12   1.404       .  A
C11          H16   1.082       .  S
C12          C13   1.404       .  A
C12         C267   1.481       .  S
C13          C14   1.404       .  A
C13          H17   1.082       .  S
C14          C15   1.407       .  A
C14         C246   1.488       .  S
C15          H18   1.080       .  S
C19          C20   1.408       .  A
C19          C24   1.408       .  A
C19         C210   1.489       .  S
C20          C21   1.408       .  A
C20          H25   1.080       .  S
C21          C22   1.407       .  A
C21         C231   1.492       .  S
C22          C23   1.404       .  A
C22          H26   1.082       .  S
C23          C24   1.401       .  A
C23         C195   1.481       .  S
C24          H27   1.082       .  S
C28          C29   1.403       .  A
C28          C33   1.405       .  A
C28         C159   1.486       .  S
C29          C30   1.403       .  A
C29          H34   1.083       .  S
C30          C31   1.403       .  A
C30         C141   1.480       .  S
C31          C32   1.409       .  A
C31          H35   1.081       .  S
C32          C33   1.408       .  A
C32         C174   1.490       .  S
C33          H36   1.081       .  S
O37          C45   1.267       .  A
O37        Co403   1.905       .  S
O38          C46   1.261       .  A
O38         Co58   1.966       .  S
O39          C47   1.264       .  A
O39        Co751   2.022       .  S
O40         C394   1.280       .  A
O40         Co60   2.038       .  S
O41          C47   1.254       .  A
O41         Co58   1.965       .  S
O42        C1086   1.264   1_565  A
O42         Co57   1.956   1_665  S
O43          C46   1.272       .  A
O43        Co406   2.023       .  S
O44          C45   1.293       .  A
O44         Co59   2.094       .  S
C45         C228   1.472       .  S
C46         C213   1.469       .  S
C47         C321   1.474       .  S
C48         C102   1.470       .  S
C48         O386   1.280       .  A
C48        O1080   1.264       .  A
O49          C62   1.265       .  A
O49         Co57   2.025       .  S
O50          C63   1.282       .  A
O50         Co58   2.042       .  S
O51          C64   1.266   1_565  A
O51        Co405   1.904       .  S
O52          C65   1.261       .  A
O52         Co60   1.966       .  S
O53          C65   1.271   1_565  A
O53        Co404   2.019       .  S
O54          C64   1.292       .  A
O54         Co57   2.091       .  S
O55          C62   1.254       .  A
O55        Co752   1.965   1_455  S
O56         C755   1.266   1_455  A
O56         Co59   1.959       .  S
Co57        O383   1.905   1_545  S
Co57       O1099   2.010   1_445  S
Co58        O399   2.019       .  S
Co58         O61   2.022       .  S
Co59        O731   2.022   1_455  S
Co59        O397   1.904       .  S
Co59        O753   2.012   1_455  S
Co60        O389   2.023       .  S
Co60        O747   1.965       .  S
Co60        O407   2.025   1_545  S
O61       Co1095   2.010       .  S
O61        Co751   2.012       .  S
O61        Co406   2.025       .  S
C62         C192   1.474       .  S
C63         C120   1.475   1_556  S
C63         O748   1.266       .  A
C64         C336   1.469       .  S
C65         C300   1.469       .  S
O66          C74   1.272       .  A
O66        Co432   2.027       .  S
O67          C75   1.291       .  A
O67         Co87   2.089       .  S
O68          C76   1.254       .  A
O68        Co780   1.964       .  S
O69         C423   1.265       .  A
O69         Co89   1.958   1_565  S
O70          C76   1.263       .  A
O70         Co87   2.019       .  S
O71        C1115   1.281   1_545  A
O71         Co86   2.041       .  S
O72          C75   1.267       .  A
O72        Co435   1.911       .  S
O73          C74   1.259       .  A
O73         Co88   1.958       .  S
C74         C177   1.469       .  S
C75         C156   1.472       .  S
C76         C264   1.470       .  S
C77         C123   1.475       .  S
C77         O415   1.265       .  A
C77        O1109   1.281       .  A
O78          C91   1.253       .  A
O78         Co86   1.962       .  S
O79          C92   1.265       .  A
O79         Co87   1.958       .  S
O80          C93   1.273   1_565  A
O80        Co434   2.034       .  S
O81          C94   1.291       .  A
O81         Co89   2.087       .  S
O82          C94   1.267   1_565  A
O82        Co433   1.904       .  S
O83          C93   1.261       .  A
O83         Co86   1.967       .  S
O84          C91   1.266   1_655  A
O84        Co781   2.027       .  S
O85         C784   1.280       .  A
O85         Co88   2.034       .  S
Co86        O412   2.027       .  S
Co86       O1128   2.024   1_545  S
Co87        O428   1.904       .  S
Co87         O90   2.014       .  S
Co88        O760   1.964   1_455  S
Co88        O426   2.034       .  S
Co88        O782   2.020       .  S
Co89        O418   1.911   1_545  S
Co89        O776   2.027       .  S
Co89        O436   2.016   1_545  S
O90       Co1124   2.024       .  S
O90        Co780   2.020       .  S
O90        Co435   2.016       .  S
C91         C138   1.473       .  S
C92         C105   1.470       .  S
C92         O777   1.280       .  A
C93         C282   1.476       .  S
C94         C249   1.466       .  S
C95          C96   1.403   1_655  A
C95         C792   1.384       .  A
C95         N101   1.341       .  A
C96          C97   1.401       .  A
C96         H107   1.082       .  S
C97         C106   1.379       .  A
C97         C790   1.384   1_455  A
C98          C99   1.404       .  A
C98         C789   1.384       .  A
C98         N104   1.342       .  A
C99         C100   1.402       .  A
C99         H454   1.082       .  S
C100        C103   1.380       .  A
C100        C787   1.384       .  A
N101        C794   1.356       .  A
N101        H111   1.045       .  S
C102        C103   1.395       .  A
C102        N793   1.356       .  A
C103        H455   1.082       .  S
N104        C105   1.356       .  A
N104        H458   1.045       .  S
C105        C798   1.395       .  A
C106        C797   1.395       .  A
C106        H110   1.082       .  S
H108        C445   1.082       .  S
H109        C449   1.082       .  S
H112        N450   1.045       .  S
C113        C114   1.405       .  A
C113       C1156   1.384   1_445  A
C113        N119   1.343       .  A
C114        C115   1.403       .  A
C114        H125   1.082       .  S
C115        C124   1.381       .  A
C115       C1154   1.384   1_445  A
C116        C117   1.406       .  A
C116       C1153   1.384       .  A
C116        N122   1.343       .  A
C117        C118   1.404       .  A
C117        H126   1.082       .  S
C118        C121   1.382       .  A
C118       C1151   1.384       .  A
N119       C1158   1.357   1_445  A
N119        H129   1.045       .  S
C120        C121   1.396       .  A
C120       N1157   1.357       .  A
C121        H127   1.082       .  S
N122        C123   1.357       .  A
N122        H130   1.045       .  S
C123       C1162   1.396       .  A
C124       C1161   1.396   1_545  A
C124        H128   1.082       .  S
C131        C136   1.384       .  A
C131        C132   1.401       .  A
C131        N137   1.338       .  A
C132        C133   1.398       .  A
C132        H143   1.083       .  S
C133        C142   1.375       .  A
C133        C134   1.384       .  A
C134        C135   1.409       .  A
C134        N140   1.346       .  A
C135        C136   1.407       .  A
C135        H144   1.082       .  S
C136        C139   1.387       .  A
N137        C138   1.355       .  A
N137        H147   1.045       .  S
C138        C139   1.398       .  A
C139        H145   1.082       .  S
N140        C141   1.358       .  A
N140        H148   1.044       .  S
C141        C142   1.394       .  A
C142        H146   1.083       .  S
C149        C154   1.385       .  A
C149        C150   1.406       .  A
C149        N155   1.346       .  A
C150        C151   1.405       .  A
C150        H161   1.082       .  S
C151        C160   1.380       .  A
C151        C152   1.383       .  A
C152        C153   1.402       .  A
C152        N158   1.342       .  A
C153        C154   1.401       .  A
C153        H162   1.083       .  S
C154        C157   1.376       .  A
N155        C156   1.356       .  A
N155        H165   1.045       .  S
C156        C157   1.395       .  A
C157        H163   1.083       .  S
N158        C159   1.357       .  A
N158        H166   1.044       .  S
C159        C160   1.400       .  A
C160        H164   1.082       .  S
C167        C172   1.382       .  A
C167        C168   1.401       .  A
C167        N173   1.343       .  A
C168        C169   1.401       .  A
C168        H179   1.083       .  S
C169        C178   1.374       .  A
C169        C170   1.385       .  A
C170        C171   1.405       .  A
C170        N176   1.346       .  A
C171        C172   1.405       .  A
C171        H180   1.082       .  S
C172        C175   1.377       .  A
N173        C174   1.358       .  A
N173        H183   1.044       .  S
C174        C175   1.401       .  A
C175        H181   1.082       .  S
N176        C177   1.356       .  A
N176        H184   1.045       .  S
C177        C178   1.395       .  A
C178        H182   1.083       .  S
C185        C190   1.384       .  A
C185        C186   1.400       .  A
C185        N191   1.338       .  A
C186        C187   1.397       .  A
C186        H197   1.083       .  S
C187        C196   1.374       .  A
C187        C188   1.383       .  A
C188        C189   1.410       .  A
C188        N194   1.347       .  A
C189        C190   1.409       .  A
C189        H198   1.082       .  S
C190        C193   1.388       .  A
N191        C192   1.355       .  A
N191        H201   1.045       .  S
C192        C193   1.399       .  A
C193        H199   1.082       .  S
N194        C195   1.360       .  A
N194        H202   1.045       .  S
C195        C196   1.393       .  A
C196        H200   1.082       .  S
C203        C208   1.382       .  A
C203        C204   1.405       .  A
C203        N209   1.344       .  A
C204        C205   1.404       .  A
C204        H215   1.082       .  S
C205        C214   1.380       .  A
C205        C206   1.385       .  A
C206        C207   1.402       .  A
C206        N212   1.342       .  A
C207        C208   1.401       .  A
C207        H216   1.082       .  S
C208        C211   1.376       .  A
N209        C210   1.360       .  A
N209        H219   1.043       .  S
C210        C211   1.399       .  A
C211        H217   1.082       .  S
N212        C213   1.355       .  A
N212        H220   1.045       .  S
C213        C214   1.396       .  A
C214        H218   1.083       .  S
C221        C226   1.385       .  A
C221        C222   1.404       .  A
C221        N227   1.344       .  A
C222        C223   1.403       .  A
C222        H233   1.082       .  S
C223        C232   1.377       .  A
C223        C224   1.382       .  A
C224        C225   1.405       .  A
C224        N230   1.345       .  A
C225        C226   1.404       .  A
C225        H234   1.082       .  S
C226        C229   1.380       .  A
N227        C228   1.356       .  A
N227        H237   1.045       .  S
C228        C229   1.396       .  A
C229        H235   1.082       .  S
N230        C231   1.360       .  A
N230        H238   1.044       .  S
C231        C232   1.400       .  A
C232        H236   1.082       .  S
C239        C244   1.383       .  A
C239        C240   1.403       .  A
C239        N245   1.342       .  A
C240        C241   1.401       .  A
C240        H251   1.082       .  S
C241        C250   1.378       .  A
C241        C242   1.385       .  A
C242        C243   1.404       .  A
C242        N248   1.342       .  A
C243        C244   1.403       .  A
C243        H252   1.083       .  S
C244        C247   1.378       .  A
N245        C246   1.358       .  A
N245        H255   1.043       .  S
C246        C247   1.400       .  A
C247        H253   1.082       .  S
N248        C249   1.355       .  A
N248        H256   1.045       .  S
C249        C250   1.394       .  A
C250        H254   1.082       .  S
C257        C262   1.384       .  A
C257        C258   1.398       .  A
C257        N263   1.336       .  A
C258        C259   1.396       .  A
C258        H269   1.083       .  S
C259        C268   1.373       .  A
C259        C260   1.383       .  A
C260        C261   1.409       .  A
C260        N266   1.347       .  A
C261        C262   1.408       .  A
C261        H270   1.082       .  S
C262        C265   1.387       .  A
N263        C264   1.354       .  A
N263        H273   1.045       .  S
C264        C265   1.398       .  A
C265        H271   1.082       .  S
N266        C267   1.359       .  A
N266        H274   1.045       .  S
C267        C268   1.394       .  A
C268        H272   1.082       .  S
C275        C280   1.384       .  A
C275        C276   1.406       .  A
C275        N281   1.347       .  A
C276        C277   1.406       .  A
C276        H287   1.082       .  S
C277        C286   1.379       .  A
C277        C278   1.382       .  A
C278        C279   1.404       .  A
C278        N284   1.344       .  A
C279        C280   1.404       .  A
C279        H288   1.082       .  S
C280        C283   1.378       .  A
N281        C282   1.358       .  A
N281        H291   1.045   1_545  S
C282        C283   1.396       .  A
C283        H289   1.082       .  S
N284        C285   1.358       .  A
N284        H292   1.044       .  S
C285        C286   1.401       .  A
C286        H290   1.082       .  S
C293        C298   1.385       .  A
C293        C294   1.402       .  A
C293        N299   1.342       .  A
C294        C295   1.401       .  A
C294        H305   1.082       .  S
C295        C304   1.376       .  A
C295        C296   1.382       .  A
C296        C297   1.405       .  A
C296        N302   1.344       .  A
C297        C298   1.404       .  A
C297        H306   1.082       .  S
C298        C301   1.379       .  A
N299        C300   1.355       .  A
N299        H309   1.045       .  S
C300        C301   1.396       .  A
C301        H307   1.083   1_545  S
N302        C303   1.360       .  A
N302        H310   1.044       .  S
C303        C304   1.399       .  A
C304        H308   1.082       .  S
C311        C316   1.384       .  A
C311        C312   1.408       .  A
C311        N317   1.346       .  A
C312        C313   1.407       .  A
C312        H323   1.082       .  S
C313        C322   1.386       .  A
C313        C314   1.384       .  A
C314        C315   1.402       .  A
C314        N320   1.340       .  A
C315        C316   1.400       .  A
C315        H324   1.083       .  S
C316        C319   1.377       .  A
N317        C318   1.358       .  A
N317        H327   1.044       .  S
C318        C319   1.396       .  A
C319        H325   1.082       .  S
N320        C321   1.356       .  A
N320        H328   1.045       .  S
C321        C322   1.397       .  A
C322        H326   1.082       .  S
C329        C334   1.385       .  A
C329        C330   1.402       .  A
C329        N335   1.342       .  A
C330        C331   1.401       .  A
C330        H341   1.082       .  S
C331        C340   1.375       .  A
C331        C332   1.382       .  A
C332        C333   1.406       .  A
C332        N338   1.345       .  A
C333        C334   1.405       .  A
C333        H342   1.082       .  S
C334        C337   1.380       .  A
N335        C336   1.355       .  A
N335        H345   1.045       .  S
C336        C337   1.396       .  A
C337        H343   1.082       .  S
N338        C339   1.360       .  A
N338        H346   1.044       .  S
C339        C340   1.400       .  A
C340        H344   1.082       .  S
C347        C348   1.407       .  A
C347        C352   1.409       .  A
C347        C685   1.492       .  S
C348        C349   1.402       .  A
C348        H353   1.081       .  S
C349        C350   1.401       .  A
C349        C664   1.482       .  S
C350        C351   1.409       .  A
C350        H354   1.081       .  S
C351        C352   1.409       .  A
C351        C649   1.491       .  S
C352        H355   1.079       .  S
C356        C357   1.408       .  A
C356        C361   1.407       .  A
C356        C631   1.491       .  S
C357        C358   1.404       .  A
C357        H362   1.082       .  S
C358        C359   1.404       .  A
C358        C613   1.481       .  S
C359        C360   1.404       .  A
C359        H363   1.082       .  S
C360        C361   1.407       .  A
C360        C592   1.488       .  S
C361        H364   1.080       .  S
C365        C366   1.408       .  A
C365        C370   1.408       .  A
C365        C556   1.489       .  S
C366        C367   1.408       .  A
C366        H371   1.080       .  S
C367        C368   1.407       .  A
C367        C577   1.492       .  S
C368        C369   1.405       .  A
C368        H372   1.082       .  S
C369        C370   1.401       .  A
C369        C541   1.481       .  S
C370        H373   1.082       .  S
C374        C375   1.403       .  A
C374        C379   1.406       .  A
C374        C505   1.486       .  S
C375        C376   1.403       .  A
C375        H380   1.083       .  S
C376        C377   1.403       .  A
C376        C487   1.480       .  S
C377        C378   1.409       .  A
C377        H381   1.081       .  S
C378        C379   1.408       .  A
C378        C520   1.490       .  S
C379        H382   1.081       .  S
O383        C391   1.267       .  A
O384        C392   1.261       .  A
O384       Co404   1.966       .  S
O385        C393   1.264       .  A
O385      Co1097   2.022       .  S
O386       Co406   2.038       .  S
O387        C393   1.254       .  A
O387       Co404   1.965       .  S
O388        C740   1.264       .  A
O388       Co403   1.956   1_655  S
O389        C392   1.272   1_545  A
O390        C391   1.293       .  A
O390       Co405   2.094       .  S
C391        C574   1.472       .  S
C392        C559   1.469       .  S
C393        C667   1.474       .  S
C394        C448   1.470   1_545  S
C394        O734   1.264   1_545  A
O395        C408   1.265       .  A
O395       Co403   2.025       .  S
O396        C409   1.282       .  A
O396       Co404   2.042       .  S
O397        C410   1.266       .  A
O398        C411   1.261       .  A
O398       Co406   1.966       .  S
O399        C411   1.271       .  A
O400        C410   1.292       .  A
O400       Co403   2.091       .  S
O401        C408   1.254       .  A
O401      Co1098   1.965   1_455  S
O402       C1101   1.266   1_445  A
O402       Co405   1.959   1_545  S
Co403       O753   2.010   1_455  S
Co404       O407   2.022       .  S
Co405      O1077   2.022   1_455  S
Co405      O1099   2.012   1_455  S
Co406      O1093   1.965       .  S
O407       Co749   2.010   1_565  S
O407      Co1097   2.012       .  S
C408        C538   1.474       .  S
C409        C466   1.475   1_556  S
C409       O1094   1.266   1_565  A
C410        C682   1.469       .  S
C411        C646   1.469       .  S
O412        C420   1.272   1_545  A
O413        C421   1.291       .  A
O413       Co433   2.089       .  S
O414        C422   1.254       .  A
O414      Co1126   1.964       .  S
O415       Co435   1.958       .  S
O416        C422   1.263       .  A
O416       Co433   2.019       .  S
O417        C769   1.281       .  A
O417       Co432   2.041       .  S
O418        C421   1.267       .  A
O419        C420   1.259       .  A
O419       Co434   1.958       .  S
C420        C523   1.469       .  S
C421        C502   1.472       .  S
C422        C610   1.470       .  S
C423        C469   1.475       .  S
C423        O763   1.281   1_565  A
O424        C437   1.253       .  A
O424       Co432   1.962       .  S
O425        C438   1.265   1_545  A
O425       Co433   1.958   1_545  S
O426        C439   1.273       .  A
O427        C440   1.291       .  A
O427       Co435   2.087       .  S
O428        C440   1.267       .  A
O429        C439   1.261       .  A
O429       Co432   1.967       .  S
O430        C437   1.266   1_655  A
O430      Co1127   2.027       .  S
O431       C1130   1.280       .  A
O431       Co434   2.034       .  S
Co432       O782   2.024       .  S
Co433       O436   2.014       .  S
Co434      O1106   1.964   1_455  S
Co434      O1128   2.020       .  S
Co435      O1122   2.027       .  S
O436       Co778   2.024   1_565  S
O436      Co1126   2.020       .  S
C437        C484   1.473       .  S
C438        C451   1.470       .  S
C438       O1123   1.280       .  A
C439        C628   1.476       .  S
C440        C595   1.466       .  S
C441       C1138   1.384   1_565  A
C441        C442   1.403   1_655  A
C441        N447   1.341       .  A
C442        C443   1.401       .  A
C442        H453   1.082       .  S
C443        C452   1.379       .  A
C443       C1136   1.384   1_465  A
C444       C1135   1.384   1_545  A
C444        C445   1.404       .  A
C444        N450   1.342       .  A
C445        C446   1.402       .  A
C446       C1133   1.384   1_545  A
C446        C449   1.381       .  A
N447       C1140   1.356       .  A
N447        H457   1.045       .  S
C448        C449   1.395   1_565  A
C448       N1139   1.356       .  A
N450        C451   1.356   1_545  A
C451       C1144   1.395       .  A
C452       C1143   1.395       .  A
C452        H456   1.082       .  S
C459        C810   1.384   1_455  A
C459        C460   1.405       .  A
C459        N465   1.343       .  A
C460        C461   1.403       .  A
C460        H471   1.082       .  S
C461        C470   1.381       .  A
C461        C808   1.384   1_455  A
C462        C807   1.384   1_565  A
C462        C463   1.406       .  A
C462        N468   1.343       .  A
C463        C464   1.404       .  A
C463        H472   1.082       .  S
C464        C805   1.384   1_565  A
C464        C467   1.382       .  A
N465        C812   1.357   1_455  A
N465        H475   1.045       .  S
C466        C467   1.396       .  A
C466        N811   1.357   1_565  A
C467        H473   1.082       .  S
N468        C469   1.357       .  A
N468        H476   1.045       .  S
C469        C816   1.396   1_565  A
C470        C815   1.396       .  A
C470        H474   1.082       .  S
C477        C482   1.384       .  A
C477        C478   1.401       .  A
C477        N483   1.338       .  A
C478        C479   1.398       .  A
C478        H489   1.083       .  S
C479        C488   1.375       .  A
C479        C480   1.384       .  A
C480        C481   1.409       .  A
C480        N486   1.346       .  A
C481        C482   1.407       .  A
C481        H490   1.082       .  S
C482        C485   1.387       .  A
N483        C484   1.355       .  A
N483        H493   1.045       .  S
C484        C485   1.398       .  A
C485        H491   1.082       .  S
N486        C487   1.358       .  A
N486        H494   1.044       .  S
C487        C488   1.394       .  A
C488        H492   1.083       .  S
C495        C500   1.385       .  A
C495        C496   1.406       .  A
C495        N501   1.346       .  A
C496        C497   1.405       .  A
C496        H507   1.082       .  S
C497        C506   1.380       .  A
C497        C498   1.383       .  A
C498        C499   1.402       .  A
C498        N504   1.342       .  A
C499        C500   1.401       .  A
C499        H508   1.083       .  S
C500        C503   1.376       .  A
N501        C502   1.356       .  A
N501        H511   1.045       .  S
C502        C503   1.395       .  A
C503        H509   1.083       .  S
N504        C505   1.357       .  A
N504        H512   1.044       .  S
C505        C506   1.400       .  A
C506        H510   1.082       .  S
C513        C518   1.382       .  A
C513        C514   1.401       .  A
C513        N519   1.343       .  A
C514        C515   1.401       .  A
C514        H525   1.083       .  S
C515        C524   1.374       .  A
C515        C516   1.385       .  A
C516        C517   1.405       .  A
C516        N522   1.346       .  A
C517        C518   1.405       .  A
C517        H526   1.082       .  S
C518        C521   1.377       .  A
N519        C520   1.358       .  A
N519        H529   1.044       .  S
C520        C521   1.401       .  A
C521        H527   1.082       .  S
N522        C523   1.356       .  A
N522        H530   1.045       .  S
C523        C524   1.395       .  A
C524        H528   1.083       .  S
C531        C536   1.384       .  A
C531        C532   1.400       .  A
C531        N537   1.338       .  A
C532        C533   1.397       .  A
C532        H543   1.083       .  S
C533        C542   1.374       .  A
C533        C534   1.383       .  A
C534        C535   1.410       .  A
C534        N540   1.347       .  A
C535        C536   1.409       .  A
C535        H544   1.082       .  S
C536        C539   1.388       .  A
N537        C538   1.355       .  A
N537        H547   1.045       .  S
C538        C539   1.399       .  A
C539        H545   1.082       .  S
N540        C541   1.360       .  A
N540        H548   1.045       .  S
C541        C542   1.393       .  A
C542        H546   1.082       .  S
C549        C554   1.382       .  A
C549        C550   1.405       .  A
C549        N555   1.344       .  A
C550        C551   1.404       .  A
C550        H561   1.082       .  S
C551        C560   1.380       .  A
C551        C552   1.385       .  A
C552        C553   1.402       .  A
C552        N558   1.342       .  A
C553        C554   1.401       .  A
C553        H562   1.082       .  S
C554        C557   1.376       .  A
N555        C556   1.360       .  A
N555        H565   1.043       .  S
C556        C557   1.399       .  A
C557        H563   1.082       .  S
N558        C559   1.355       .  A
N558        H566   1.045       .  S
C559        C560   1.396       .  A
C560        H564   1.083       .  S
C567        C572   1.385       .  A
C567        C568   1.404       .  A
C567        N573   1.344       .  A
C568        C569   1.403       .  A
C568        H579   1.082       .  S
C569        C578   1.377       .  A
C569        C570   1.382       .  A
C570        C571   1.405       .  A
C570        N576   1.345       .  A
C571        C572   1.404       .  A
C571        H580   1.082       .  S
C572        C575   1.380       .  A
N573        C574   1.356       .  A
N573        H583   1.045       .  S
C574        C575   1.396       .  A
C575        H581   1.082       .  S
N576        C577   1.360       .  A
N576        H584   1.044       .  S
C577        C578   1.400       .  A
C578        H582   1.082       .  S
C585        C590   1.383       .  A
C585        C586   1.403       .  A
C585        N591   1.342       .  A
C586        C587   1.401       .  A
C586        H597   1.082       .  S
C587        C596   1.378       .  A
C587        C588   1.385       .  A
C588        C589   1.404       .  A
C588        N594   1.342       .  A
C589        C590   1.403       .  A
C589        H598   1.082       .  S
C590        C593   1.378       .  A
N591        C592   1.358       .  A
N591        H601   1.043       .  S
C592        C593   1.400       .  A
C593        H599   1.082       .  S
N594        C595   1.355       .  A
N594        H602   1.044       .  S
C595        C596   1.394       .  A
C596        H600   1.082       .  S
C603        C608   1.384       .  A
C603        C604   1.398       .  A
C603        N609   1.336       .  A
C604        C605   1.396       .  A
C604        H615   1.083       .  S
C605        C614   1.373       .  A
C605        C606   1.383       .  A
C606        C607   1.409       .  A
C606        N612   1.347       .  A
C607        C608   1.408       .  A
C607        H616   1.082       .  S
C608        C611   1.387       .  A
N609        C610   1.353       .  A
N609        H619   1.045       .  S
C610        C611   1.398       .  A
C611        H617   1.082       .  S
N612        C613   1.359       .  A
N612        H620   1.045       .  S
C613        C614   1.394       .  A
C614        H618   1.082       .  S
C621        C626   1.384       .  A
C621        C622   1.406       .  A
C621        N627   1.347       .  A
C622        C623   1.406       .  A
C622        H633   1.082       .  S
C623        C632   1.379       .  A
C623        C624   1.382       .  A
C624        C625   1.404       .  A
C624        N630   1.345       .  A
C625        C626   1.404       .  A
C625        H634   1.082       .  S
C626        C629   1.378       .  A
N627        C628   1.358       .  A
N627        H637   1.045       .  S
C628        C629   1.396       .  A
C629        H635   1.082       .  S
N630        C631   1.358       .  A
N630        H638   1.044       .  S
C631        C632   1.401       .  A
C632        H636   1.082       .  S
C639        C644   1.385       .  A
C639        C640   1.402       .  A
C639        N645   1.342       .  A
C640        C641   1.401       .  A
C640        H651   1.082       .  S
C641        C650   1.376       .  A
C641        C642   1.382       .  A
C642        C643   1.405       .  A
C642        N648   1.345       .  A
C643        C644   1.404       .  A
C643        H652   1.082       .  S
C644        C647   1.379       .  A
N645        C646   1.355       .  A
N645        H655   1.045       .  S
C646        C647   1.396       .  A
C647        H653   1.083       .  S
N648        C649   1.360       .  A
N648        H656   1.044       .  S
C649        C650   1.399       .  A
C650        H654   1.082       .  S
C657        C662   1.384       .  A
C657        C658   1.408       .  A
C657        N663   1.346       .  A
C658        C659   1.407       .  A
C658        H669   1.082       .  S
C659        C668   1.386       .  A
C659        C660   1.384       .  A
C660        C661   1.402       .  A
C660        N666   1.340       .  A
C661        C662   1.400       .  A
C661        H670   1.083       .  S
C662        C665   1.377       .  A
N663        C664   1.358       .  A
N663        H673   1.044       .  S
C664        C665   1.396       .  A
C665        H671   1.082       .  S
N666        C667   1.356       .  A
N666        H674   1.045       .  S
C667        C668   1.397       .  A
C668        H672   1.082       .  S
C675        C680   1.385       .  A
C675        C676   1.402       .  A
C675        N681   1.342       .  A
C676        C677   1.401       .  A
C676        H687   1.082       .  S
C677        C686   1.375       .  A
C677        C678   1.382       .  A
C678        C679   1.405       .  A
C678        N684   1.345       .  A
C679        C680   1.405       .  A
C679        H688   1.082       .  S
C680        C683   1.380       .  A
N681        C682   1.355       .  A
N681        H691   1.045       .  S
C682        C683   1.396       .  A
C683        H689   1.082       .  S
N684        C685   1.360       .  A
N684        H692   1.044       .  S
C685        C686   1.400       .  A
C686        H690   1.082       .  S
C693        C694   1.407       .  A
C693        C698   1.409       .  A
C693       C1031   1.492       .  S
C694        C695   1.402       .  A
C694        H699   1.081       .  S
C695        C696   1.401       .  A
C695       C1010   1.482       .  S
C696        C697   1.409       .  A
C696        H700   1.081       .  S
C697        C698   1.409       .  A
C697        C995   1.491       .  S
C698        H701   1.079       .  S
C702        C703   1.408       .  A
C702        C707   1.407       .  A
C702        C977   1.491       .  S
C703        C704   1.404       .  A
C703        H708   1.082       .  S
C704        C705   1.404       .  A
C704        C959   1.481       .  S
C705        C706   1.404       .  A
C705        H709   1.082       .  S
C706        C707   1.407       .  A
C706        C938   1.488       .  S
C707        H710   1.080       .  S
C711        C712   1.408       .  A
C711        C716   1.408       .  A
C711        C902   1.489       .  S
C712        C713   1.408       .  A
C712        H717   1.080       .  S
C713        C714   1.407       .  A
C713        C923   1.492       .  S
C714        C715   1.405       .  A
C714        H718   1.082       .  S
C715        C716   1.401       .  A
C715        C887   1.481       .  S
C716        H719   1.082       .  S
C720        C721   1.403       .  A
C720        C725   1.406       .  A
C720        C851   1.486       .  S
C721        C722   1.403       .  A
C721        H726   1.083       .  S
C722        C723   1.403       .  A
C722        C833   1.480       .  S
C723        C724   1.409       .  A
C723        H727   1.081       .  S
C724        C725   1.408       .  A
C724        C866   1.490       .  S
C725        H728   1.081       .  S
O729        C737   1.267       .  A
O729      Co1095   1.905       .  S
O730        C738   1.261       .  A
O730       Co750   1.966       .  S
O731        C739   1.264       .  A
O732       C1086   1.280       .  A
O732       Co752   2.038       .  S
O733        C739   1.254       .  A
O733       Co750   1.965       .  S
O734       Co749   1.956   1_565  S
O735        C738   1.272       .  A
O735      Co1098   2.023       .  S
O736        C737   1.293       .  A
O736       Co751   2.094       .  S
C737        C920   1.472       .  S
C738        C905   1.469       .  S
C739       C1013   1.474       .  S
C740        C794   1.470       .  S
C740       O1078   1.280       .  A
O741        C754   1.265       .  A
O741       Co749   2.025       .  S
O742        C755   1.282       .  A
O742       Co750   2.042       .  S
O743        C756   1.266   1_565  A
O743      Co1097   1.904       .  S
O744        C757   1.261       .  A
O744       Co752   1.966       .  S
O745        C757   1.271   1_565  A
O745      Co1096   2.019       .  S
O746        C756   1.292       .  A
O746       Co749   2.091       .  S
O747        C754   1.254       .  A
O748       Co751   1.959       .  S
Co749      O1075   1.905   1_545  S
Co750      O1091   2.019       .  S
Co750       O753   2.022       .  S
Co751      O1089   1.904       .  S
Co752      O1081   2.023       .  S
Co752      O1099   2.025   1_545  S
O753      Co1098   2.025       .  S
C754        C884   1.474       .  S
C755        C812   1.475   1_556  S
C756       C1028   1.469       .  S
C757        C992   1.469       .  S
O758        C766   1.272       .  A
O758      Co1124   2.027       .  S
O759        C767   1.291       .  A
O759       Co779   2.089       .  S
O760        C768   1.254       .  A
O761       C1115   1.265   1_655  A
O761       Co781   1.958   1_565  S
O762        C768   1.263       .  A
O762       Co779   2.019       .  S
O763       Co778   2.041       .  S
O764        C767   1.267       .  A
O764      Co1127   1.911       .  S
O765        C766   1.259       .  A
O765       Co780   1.958       .  S
C766        C869   1.469       .  S
C767        C848   1.472       .  S
C768        C956   1.470       .  S
C769        C815   1.475       .  S
C769       O1107   1.265   1_455  A
O770        C783   1.253       .  A
O770       Co778   1.962       .  S
O771        C784   1.265   1_655  A
O771       Co779   1.958       .  S
O772        C785   1.273   1_565  A
O772      Co1126   2.034       .  S
O773        C786   1.291       .  A
O773       Co781   2.087       .  S
O774        C786   1.267   1_565  A
O774      Co1125   1.904       .  S
O775        C785   1.261       .  A
O775       Co778   1.967       .  S
O776        C783   1.266       .  A
O777       Co780   2.034       .  S
Co778      O1104   2.027       .  S
Co779      O1120   1.904       .  S
Co779       O782   2.014   1_655  S
Co780      O1118   2.034       .  S
Co781      O1110   1.911   1_545  S
Co781      O1128   2.016   1_645  S
O782      Co1127   2.016   1_455  S
C783        C830   1.473       .  S
C784        C797   1.470       .  S
C785        C974   1.476       .  S
C786        C941   1.466       .  S
C787        C788   1.403       .  A
C787        N793   1.341       .  A
C788        C789   1.401       .  A
C788        H799   1.082       .  S
C789        C798   1.379       .  A
C790        C791   1.404       .  A
C790        N796   1.342       .  A
C791        C792   1.402       .  A
C791       H1146   1.082       .  S
C792        C795   1.380       .  A
N793        H803   1.045       .  S
C794        C795   1.395       .  A
C795       H1147   1.082       .  S
N796        C797   1.356   1_655  A
N796       H1150   1.045       .  S
C798        H802   1.082       .  S
H800       C1137   1.082       .  S
H801       C1141   1.082       .  S
H804       N1142   1.045       .  S
C805        C806   1.405       .  A
C805        N811   1.343       .  A
C806        C807   1.403       .  A
C806        H817   1.082       .  S
C807        C816   1.381       .  A
C808        C809   1.406       .  A
C808        N814   1.343       .  A
C809        C810   1.404       .  A
C809        H818   1.082       .  S
C810        C813   1.382       .  A
N811        H821   1.045       .  S
C812        C813   1.396       .  A
C813        H819   1.082       .  S
N814        C815   1.357   1_655  A
N814        H822   1.045       .  S
C816        H820   1.082       .  S
C823        C828   1.384       .  A
C823        C824   1.401       .  A
C823        N829   1.338       .  A
C824        C825   1.398       .  A
C824        H835   1.083       .  S
C825        C834   1.375       .  A
C825        C826   1.384       .  A
C826        C827   1.409       .  A
C826        N832   1.346       .  A
C827        C828   1.407       .  A
C827        H836   1.082       .  S
C828        C831   1.387       .  A
N829        C830   1.355       .  A
N829        H839   1.045       .  S
C830        C831   1.398       .  A
C831        H837   1.082       .  S
N832        C833   1.358       .  A
N832        H840   1.044       .  S
C833        C834   1.394       .  A
C834        H838   1.083       .  S
C841        C846   1.385       .  A
C841        C842   1.406       .  A
C841        N847   1.346       .  A
C842        C843   1.405       .  A
C842        H853   1.082       .  S
C843        C852   1.380       .  A
C843        C844   1.383       .  A
C844        C845   1.402       .  A
C844        N850   1.342       .  A
C845        C846   1.401       .  A
C845        H854   1.083       .  S
C846        C849   1.376       .  A
N847        C848   1.356       .  A
N847        H857   1.045       .  S
C848        C849   1.395       .  A
C849        H855   1.083       .  S
N850        C851   1.357       .  A
N850        H858   1.044       .  S
C851        C852   1.400       .  A
C852        H856   1.082       .  S
C859        C864   1.382       .  A
C859        C860   1.401       .  A
C859        N865   1.343       .  A
C860        C861   1.401       .  A
C860        H871   1.083       .  S
C861        C870   1.374       .  A
C861        C862   1.385       .  A
C862        C863   1.405       .  A
C862        N868   1.346       .  A
C863        C864   1.405       .  A
C863        H872   1.082       .  S
C864        C867   1.377       .  A
N865        C866   1.358       .  A
N865        H875   1.044       .  S
C866        C867   1.401       .  A
C867        H873   1.082       .  S
N868        C869   1.356       .  A
N868        H876   1.045       .  S
C869        C870   1.395       .  A
C870        H874   1.083       .  S
C877        C882   1.384       .  A
C877        C878   1.400       .  A
C877        N883   1.338       .  A
C878        C879   1.397       .  A
C878        H889   1.083       .  S
C879        C888   1.374       .  A
C879        C880   1.383       .  A
C880        C881   1.410       .  A
C880        N886   1.347       .  A
C881        C882   1.409       .  A
C881        H890   1.082       .  S
C882        C885   1.388       .  A
N883        C884   1.355       .  A
N883        H893   1.045       .  S
C884        C885   1.399       .  A
C885        H891   1.082       .  S
N886        C887   1.360       .  A
N886        H894   1.044       .  S
C887        C888   1.393       .  A
C888        H892   1.082       .  S
C895        C900   1.382       .  A
C895        C896   1.405       .  A
C895        N901   1.344       .  A
C896        C897   1.404       .  A
C896        H907   1.082       .  S
C897        C906   1.380       .  A
C897        C898   1.385       .  A
C898        C899   1.402       .  A
C898        N904   1.342       .  A
C899        C900   1.401       .  A
C899        H908   1.082       .  S
C900        C903   1.376       .  A
N901        C902   1.360       .  A
N901        H911   1.043       .  S
C902        C903   1.399       .  A
C903        H909   1.082       .  S
N904        C905   1.355       .  A
N904        H912   1.045       .  S
C905        C906   1.396       .  A
C906        H910   1.083       .  S
C913        C918   1.385       .  A
C913        C914   1.404       .  A
C913        N919   1.344       .  A
C914        C915   1.403       .  A
C914        H925   1.082       .  S
C915        C924   1.377       .  A
C915        C916   1.382       .  A
C916        C917   1.405       .  A
C916        N922   1.345       .  A
C917        C918   1.404       .  A
C917        H926   1.082       .  S
C918        C921   1.380       .  A
N919        C920   1.356       .  A
N919        H929   1.045       .  S
C920        C921   1.396       .  A
C921        H927   1.082       .  S
N922        C923   1.360       .  A
N922        H930   1.044       .  S
C923        C924   1.400       .  A
C924        H928   1.082       .  S
C931        C936   1.383       .  A
C931        C932   1.403       .  A
C931        N937   1.342       .  A
C932        C933   1.401       .  A
C932        H943   1.082       .  S
C933        C942   1.378       .  A
C933        C934   1.385       .  A
C934        C935   1.404       .  A
C934        N940   1.342       .  A
C935        C936   1.403       .  A
C935        H944   1.082       .  S
C936        C939   1.378       .  A
N937        C938   1.358       .  A
N937        H947   1.043       .  S
C938        C939   1.400       .  A
C939        H945   1.082       .  S
N940        C941   1.356       .  A
N940        H948   1.044       .  S
C941        C942   1.394       .  A
C942        H946   1.082       .  S
C949        C954   1.384       .  A
C949        C950   1.398       .  A
C949        N955   1.336       .  A
C950        C951   1.396       .  A
C950        H961   1.083       .  S
C951        C960   1.373       .  A
C951        C952   1.383       .  A
C952        C953   1.409       .  A
C952        N958   1.347       .  A
C953        C954   1.408       .  A
C953        H962   1.082       .  S
C954        C957   1.387       .  A
N955        C956   1.354       .  A
N955        H965   1.045       .  S
C956        C957   1.398       .  A
C957        H963   1.082       .  S
N958        C959   1.359       .  A
N958        H966   1.045       .  S
C959        C960   1.394       .  A
C960        H964   1.082       .  S
C967        C972   1.384       .  A
C967        C968   1.406       .  A
C967        N973   1.347       .  A
C968        C969   1.406       .  A
C968        H979   1.082       .  S
C969        C978   1.379       .  A
C969        C970   1.382       .  A
C970        C971   1.404       .  A
C970        N976   1.345       .  A
C971        C972   1.404       .  A
C971        H980   1.082       .  S
C972        C975   1.378       .  A
N973        C974   1.358       .  A
N973        H983   1.044   1_545  S
C974        C975   1.396       .  A
C975        H981   1.082       .  S
N976        C977   1.358       .  A
N976        H984   1.043       .  S
C977        C978   1.401       .  A
C978        H982   1.082       .  S
C985        C990   1.385       .  A
C985        C986   1.402       .  A
C985        N991   1.342       .  A
C986        C987   1.401       .  A
C986        H997   1.082       .  S
C987        C996   1.376       .  A
C987        C988   1.382       .  A
C988        C989   1.405       .  A
C988        N994   1.344       .  A
C989        C990   1.404       .  A
C989        H998   1.082       .  S
C990        C993   1.379       .  A
N991        C992   1.355       .  A
N991       H1001   1.045       .  S
C992        C993   1.396       .  A
C993        H999   1.083   1_545  S
N994        C995   1.360       .  A
N994       H1002   1.044       .  S
C995        C996   1.399       .  A
C996       H1000   1.082       .  S
C1003      C1008   1.384       .  A
C1003      C1004   1.408       .  A
C1003      N1009   1.346       .  A
C1004      C1005   1.407       .  A
C1004      H1015   1.082       .  S
C1005      C1014   1.386       .  A
C1005      C1006   1.384       .  A
C1006      C1007   1.402       .  A
C1006      N1012   1.340       .  A
C1007      C1008   1.400       .  A
C1007      H1016   1.083       .  S
C1008      C1011   1.377       .  A
N1009      C1010   1.358       .  A
N1009      H1019   1.044       .  S
C1010      C1011   1.396       .  A
C1011      H1017   1.082       .  S
N1012      C1013   1.356       .  A
N1012      H1020   1.045       .  S
C1013      C1014   1.397       .  A
C1014      H1018   1.082       .  S
C1021      C1026   1.385       .  A
C1021      C1022   1.402       .  A
C1021      N1027   1.342       .  A
C1022      C1023   1.401       .  A
C1022      H1033   1.082       .  S
C1023      C1032   1.375       .  A
C1023      C1024   1.382       .  A
C1024      C1025   1.406       .  A
C1024      N1030   1.345       .  A
C1025      C1026   1.405       .  A
C1025      H1034   1.082       .  S
C1026      C1029   1.380       .  A
N1027      C1028   1.355       .  A
N1027      H1037   1.045       .  S
C1028      C1029   1.396       .  A
C1029      H1035   1.082       .  S
N1030      C1031   1.360       .  A
N1030      H1038   1.044       .  S
C1031      C1032   1.400       .  A
C1032      H1036   1.082       .  S
C1039      C1040   1.407       .  A
C1039      C1044   1.409       .  A
C1039      C1377   1.492       .  S
C1040      C1041   1.402       .  A
C1040      H1045   1.081       .  S
C1041      C1042   1.401       .  A
C1041      C1356   1.482       .  S
C1042      C1043   1.409       .  A
C1042      H1046   1.081       .  S
C1043      C1044   1.409       .  A
C1043      C1341   1.491       .  S
C1044      H1047   1.079       .  S
C1048      C1049   1.408       .  A
C1048      C1053   1.407       .  A
C1048      C1323   1.491       .  S
C1049      C1050   1.404       .  A
C1049      H1054   1.082       .  S
C1050      C1051   1.404       .  A
C1050      C1305   1.481       .  S
C1051      C1052   1.404       .  A
C1051      H1055   1.082       .  S
C1052      C1053   1.407       .  A
C1052      C1284   1.488       .  S
C1053      H1056   1.080       .  S
C1057      C1058   1.408       .  A
C1057      C1062   1.408       .  A
C1057      C1248   1.489       .  S
C1058      C1059   1.408       .  A
C1058      H1063   1.080       .  S
C1059      C1060   1.407       .  A
C1059      C1269   1.492       .  S
C1060      C1061   1.405       .  A
C1060      H1064   1.082       .  S
C1061      C1062   1.401       .  A
C1061      C1233   1.481       .  S
C1062      H1065   1.082       .  S
C1066      C1067   1.403       .  A
C1066      C1071   1.406       .  A
C1066      C1197   1.486       .  S
C1067      C1068   1.403       .  A
C1067      H1072   1.083       .  S
C1068      C1069   1.403       .  A
C1068      C1179   1.480       .  S
C1069      C1070   1.409       .  A
C1069      H1073   1.081       .  S
C1070      C1071   1.408       .  A
C1070      C1212   1.490       .  S
C1071      H1074   1.081       .  S
O1075      C1083   1.267       .  A
O1076      C1084   1.261       .  A
O1076     Co1096   1.966       .  S
O1077      C1085   1.264       .  A
O1078     Co1098   2.038       .  S
O1079      C1085   1.254       .  A
O1079     Co1096   1.965       .  S
O1080     Co1095   1.956       .  S
O1081      C1084   1.272   1_545  A
O1082      C1083   1.293       .  A
O1082     Co1097   2.094       .  S
C1083      C1266   1.472       .  S
C1084      C1251   1.469       .  S
C1085      C1359   1.474       .  S
C1086      C1140   1.470   1_545  S
O1087      C1100   1.265       .  A
O1087     Co1095   2.025       .  S
O1088      C1101   1.282       .  A
O1088     Co1096   2.042       .  S
O1089      C1102   1.266       .  A
O1090      C1103   1.261       .  A
O1090     Co1098   1.966       .  S
O1091      C1103   1.271       .  A
O1092      C1102   1.292       .  A
O1092     Co1095   2.091       .  S
O1093      C1100   1.254       .  A
O1094     Co1097   1.959   1_545  S
Co1096     O1099   2.022       .  S
C1100      C1230   1.474       .  S
C1101      C1158   1.475   1_556  S
C1102      C1374   1.469       .  S
C1103      C1338   1.469       .  S
O1104      C1112   1.272   1_545  A
O1105      C1113   1.291       .  A
O1105     Co1125   2.089       .  S
O1106      C1114   1.254       .  A
O1107     Co1127   1.958       .  S
O1108      C1114   1.263       .  A
O1108     Co1125   2.019       .  S
O1109     Co1124   2.041       .  S
O1110      C1113   1.267       .  A
O1111      C1112   1.259       .  A
O1111     Co1126   1.958       .  S
C1112      C1215   1.469       .  S
C1113      C1194   1.472       .  S
C1114      C1302   1.470       .  S
C1115      C1161   1.475       .  S
O1116      C1129   1.253       .  A
O1116     Co1124   1.962       .  S
O1117      C1130   1.265   1_645  A
O1117     Co1125   1.958   1_545  S
O1118      C1131   1.273       .  A
O1119      C1132   1.291       .  A
O1119     Co1127   2.087       .  S
O1120      C1132   1.267       .  A
O1121      C1131   1.261       .  A
O1121     Co1124   1.967       .  S
O1122      C1129   1.266       .  A
O1123     Co1126   2.034       .  S
Co1125     O1128   2.014   1_655  S
C1129      C1176   1.473       .  S
C1130      C1143   1.470       .  S
C1131      C1320   1.476       .  S
C1132      C1287   1.466       .  S
C1133      C1134   1.403       .  A
C1133      N1139   1.341       .  A
C1134      C1135   1.401       .  A
C1134      H1145   1.082       .  S
C1135      C1144   1.379       .  A
C1136      C1137   1.404       .  A
C1136      N1142   1.342       .  A
C1137      C1138   1.402       .  A
C1138      C1141   1.381       .  A
N1139      H1149   1.045       .  S
C1140      C1141   1.395   1_565  A
N1142      C1143   1.356   1_645  A
C1144      H1148   1.082       .  S
C1151      C1152   1.405       .  A
C1151      N1157   1.343       .  A
C1152      C1153   1.403       .  A
C1152      H1163   1.082       .  S
C1153      C1162   1.381       .  A
C1154      C1155   1.406       .  A
C1154      N1160   1.343       .  A
C1155      C1156   1.404       .  A
C1155      H1164   1.082       .  S
C1156      C1159   1.382       .  A
N1157      H1167   1.045       .  S
C1158      C1159   1.396       .  A
C1159      H1165   1.082       .  S
N1160      C1161   1.357   1_655  A
N1160      H1168   1.045       .  S
C1162      H1166   1.082       .  S
C1169      C1174   1.384       .  A
C1169      C1170   1.401       .  A
C1169      N1175   1.338       .  A
C1170      C1171   1.398       .  A
C1170      H1181   1.083       .  S
C1171      C1180   1.375       .  A
C1171      C1172   1.384       .  A
C1172      C1173   1.409       .  A
C1172      N1178   1.346       .  A
C1173      C1174   1.407       .  A
C1173      H1182   1.082       .  S
C1174      C1177   1.387       .  A
N1175      C1176   1.355       .  A
N1175      H1185   1.045       .  S
C1176      C1177   1.398       .  A
C1177      H1183   1.082       .  S
N1178      C1179   1.358       .  A
N1178      H1186   1.044       .  S
C1179      C1180   1.394       .  A
C1180      H1184   1.083       .  S
C1187      C1192   1.385       .  A
C1187      C1188   1.406       .  A
C1187      N1193   1.346       .  A
C1188      C1189   1.405       .  A
C1188      H1199   1.082       .  S
C1189      C1198   1.380       .  A
C1189      C1190   1.383       .  A
C1190      C1191   1.402       .  A
C1190      N1196   1.342       .  A
C1191      C1192   1.401       .  A
C1191      H1200   1.083       .  S
C1192      C1195   1.376       .  A
N1193      C1194   1.356       .  A
N1193      H1203   1.045       .  S
C1194      C1195   1.395       .  A
C1195      H1201   1.083       .  S
N1196      C1197   1.357       .  A
N1196      H1204   1.044       .  S
C1197      C1198   1.400       .  A
C1198      H1202   1.082       .  S
C1205      C1210   1.382       .  A
C1205      C1206   1.401       .  A
C1205      N1211   1.343       .  A
C1206      C1207   1.401       .  A
C1206      H1217   1.083       .  S
C1207      C1216   1.374       .  A
C1207      C1208   1.385       .  A
C1208      C1209   1.405       .  A
C1208      N1214   1.346       .  A
C1209      C1210   1.405       .  A
C1209      H1218   1.082       .  S
C1210      C1213   1.377       .  A
N1211      C1212   1.358       .  A
N1211      H1221   1.044       .  S
C1212      C1213   1.401       .  A
C1213      H1219   1.082       .  S
N1214      C1215   1.356       .  A
N1214      H1222   1.045       .  S
C1215      C1216   1.395       .  A
C1216      H1220   1.083       .  S
C1223      C1228   1.384       .  A
C1223      C1224   1.400       .  A
C1223      N1229   1.338       .  A
C1224      C1225   1.397       .  A
C1224      H1235   1.083       .  S
C1225      C1234   1.374       .  A
C1225      C1226   1.383       .  A
C1226      C1227   1.410       .  A
C1226      N1232   1.347       .  A
C1227      C1228   1.409       .  A
C1227      H1236   1.082       .  S
C1228      C1231   1.388       .  A
N1229      C1230   1.355       .  A
N1229      H1239   1.045       .  S
C1230      C1231   1.399       .  A
C1231      H1237   1.082       .  S
N1232      C1233   1.360       .  A
N1232      H1240   1.045       .  S
C1233      C1234   1.393       .  A
C1234      H1238   1.082       .  S
C1241      C1246   1.382       .  A
C1241      C1242   1.405       .  A
C1241      N1247   1.344       .  A
C1242      C1243   1.404       .  A
C1242      H1253   1.082       .  S
C1243      C1252   1.380       .  A
C1243      C1244   1.385       .  A
C1244      C1245   1.402       .  A
C1244      N1250   1.342       .  A
C1245      C1246   1.401       .  A
C1245      H1254   1.082       .  S
C1246      C1249   1.376       .  A
N1247      C1248   1.360       .  A
N1247      H1257   1.043       .  S
C1248      C1249   1.399       .  A
C1249      H1255   1.082       .  S
N1250      C1251   1.355       .  A
N1250      H1258   1.045       .  S
C1251      C1252   1.396       .  A
C1252      H1256   1.083       .  S
C1259      C1264   1.385       .  A
C1259      C1260   1.404       .  A
C1259      N1265   1.344       .  A
C1260      C1261   1.403       .  A
C1260      H1271   1.082       .  S
C1261      C1270   1.377       .  A
C1261      C1262   1.382       .  A
C1262      C1263   1.405       .  A
C1262      N1268   1.345       .  A
C1263      C1264   1.404       .  A
C1263      H1272   1.082       .  S
C1264      C1267   1.380       .  A
N1265      C1266   1.356       .  A
N1265      H1275   1.045       .  S
C1266      C1267   1.396       .  A
C1267      H1273   1.082       .  S
N1268      C1269   1.360       .  A
N1268      H1276   1.044       .  S
C1269      C1270   1.400       .  A
C1270      H1274   1.082       .  S
C1277      C1282   1.383       .  A
C1277      C1278   1.403       .  A
C1277      N1283   1.342       .  A
C1278      C1279   1.401       .  A
C1278      H1289   1.082       .  S
C1279      C1288   1.378       .  A
C1279      C1280   1.385       .  A
C1280      C1281   1.404       .  A
C1280      N1286   1.342       .  A
C1281      C1282   1.403       .  A
C1281      H1290   1.082       .  S
C1282      C1285   1.378       .  A
N1283      C1284   1.358       .  A
N1283      H1293   1.043       .  S
C1284      C1285   1.400       .  A
C1285      H1291   1.082       .  S
N1286      C1287   1.355       .  A
N1286      H1294   1.045       .  S
C1287      C1288   1.394       .  A
C1288      H1292   1.082       .  S
C1295      C1300   1.384       .  A
C1295      C1296   1.398       .  A
C1295      N1301   1.336       .  A
C1296      C1297   1.396       .  A
C1296      H1307   1.083       .  S
C1297      C1306   1.373       .  A
C1297      C1298   1.383       .  A
C1298      C1299   1.409       .  A
C1298      N1304   1.347       .  A
C1299      C1300   1.408       .  A
C1299      H1308   1.082       .  S
C1300      C1303   1.387       .  A
N1301      C1302   1.353       .  A
N1301      H1311   1.045       .  S
C1302      C1303   1.398       .  A
C1303      H1309   1.082       .  S
N1304      C1305   1.359       .  A
N1304      H1312   1.045       .  S
C1305      C1306   1.394       .  A
C1306      H1310   1.082       .  S
C1313      C1318   1.384       .  A
C1313      C1314   1.407       .  A
C1313      N1319   1.347       .  A
C1314      C1315   1.406       .  A
C1314      H1325   1.082       .  S
C1315      C1324   1.379       .  A
C1315      C1316   1.382       .  A
C1316      C1317   1.404       .  A
C1316      N1322   1.345       .  A
C1317      C1318   1.404       .  A
C1317      H1326   1.082       .  S
C1318      C1321   1.378       .  A
N1319      C1320   1.358       .  A
N1319      H1329   1.045       .  S
C1320      C1321   1.396       .  A
C1321      H1327   1.082       .  S
N1322      C1323   1.358       .  A
N1322      H1330   1.044       .  S
C1323      C1324   1.401       .  A
C1324      H1328   1.082       .  S
C1331      C1336   1.385       .  A
C1331      C1332   1.402       .  A
C1331      N1337   1.342       .  A
C1332      C1333   1.401       .  A
C1332      H1343   1.082       .  S
C1333      C1342   1.376       .  A
C1333      C1334   1.382       .  A
C1334      C1335   1.405       .  A
C1334      N1340   1.345       .  A
C1335      C1336   1.404       .  A
C1335      H1344   1.082       .  S
C1336      C1339   1.379       .  A
N1337      C1338   1.355       .  A
N1337      H1347   1.045       .  S
C1338      C1339   1.396       .  A
C1339      H1345   1.083       .  S
N1340      C1341   1.360       .  A
N1340      H1348   1.044       .  S
C1341      C1342   1.399       .  A
C1342      H1346   1.082       .  S
C1349      C1354   1.384       .  A
C1349      C1350   1.408       .  A
C1349      N1355   1.346       .  A
C1350      C1351   1.407       .  A
C1350      H1361   1.082       .  S
C1351      C1360   1.386       .  A
C1351      C1352   1.384       .  A
C1352      C1353   1.402       .  A
C1352      N1358   1.340       .  A
C1353      C1354   1.400       .  A
C1353      H1362   1.083       .  S
C1354      C1357   1.376       .  A
N1355      C1356   1.358       .  A
N1355      H1365   1.044       .  S
C1356      C1357   1.396       .  A
C1357      H1363   1.082       .  S
N1358      C1359   1.356       .  A
N1358      H1366   1.045       .  S
C1359      C1360   1.397       .  A
C1360      H1364   1.082       .  S
C1367      C1372   1.385       .  A
C1367      C1368   1.402       .  A
C1367      N1373   1.342       .  A
C1368      C1369   1.401       .  A
C1368      H1379   1.082       .  S
C1369      C1378   1.375       .  A
C1369      C1370   1.382       .  A
C1370      C1371   1.406       .  A
C1370      N1376   1.345       .  A
C1371      C1372   1.405       .  A
C1371      H1380   1.082       .  S
C1372      C1375   1.380       .  A
N1373      C1374   1.355       .  A
N1373      H1383   1.045       .  S
C1374      C1375   1.396       .  A
C1375      H1381   1.082       .  S
N1376      C1377   1.360       .  A
N1376      H1384   1.044       .  S
C1377      C1378   1.400       .  A
C1378      H1382   1.082       .  S
