geometry optimzed in LAMMPS
_audit_creation_date              2020-12-01 
_audit_creation_method            'lammps2cif' 
_symmetry_space_group_name_H-M    'P1' 
_symmetry_Int_Tables_number       1 
_symmetry_cell_setting            triclinic 
loop_ 
_symmetry_equiv_pos_as_xyz 
  x,y,z 
_cell_length_a                    26.89198901 
_cell_length_b                    27.570247039460686 
_cell_length_c                    22.344900655150866 
_cell_angle_alpha                 90.36837809736019 
_cell_angle_beta                  88.80343315831202 
_cell_angle_gamma                 118.00213576268466 
loop_ 
_atom_site_label 
_atom_site_type_symbol 
_atom_site_fract_x 
_atom_site_fract_y 
_atom_site_fract_z 
_atom_site_charge 
Fe1        Fe  0.41488956  0.20917288  0.24633741     1.65800
Fe2        Fe  0.29012669  0.21258062  0.25424090     1.73200
Fe3        Fe  0.29261499  0.09081930  0.25827692     1.54400
O4          O  0.34641036  0.08170082  0.19647704    -0.82000
O5          O  0.24935860  0.17564843  0.33338562    -0.80300
O6          O  0.41665870  0.16385302  0.17274205    -0.84500
O7          O  0.42525812  0.15504786  0.30206721    -0.79400
O8          O  0.23939755  0.08398060  0.18968373    -0.81100
O9          O  0.34978543  0.27587474  0.30401310    -0.83900
C10         C  0.39352508  0.11219758  0.33209087     0.96900
C11         C  0.39054739  0.11210177  0.16562183     1.04300
O12         O  0.33248993  0.17082159  0.25242395    -1.12900
O13         O  0.32866146  0.25450354  0.17621353    -0.75300
O14         O  0.41666352  0.26920275  0.19002479    -0.78800
O15         O  0.34048840  0.08864014  0.32787476    -0.79500
C16         C  0.38129647  0.28049934  0.16517847     0.95800
O17         O  0.42072626  0.25752681  0.31949485    -0.77400
O18         O  0.22349321  0.15537942  0.20433031    -0.82600
C19         C  0.22587453  0.12553197  0.34909492     0.98400
C20         C  0.21123694  0.10938955  0.18012544     1.04300
O21         O  0.23515360  0.08997411  0.32164672    -0.78300
C22         C  0.39558420  0.28610806  0.32903319     1.02600
C23         C  0.99782112  0.99414255  0.03684456    -0.02800
C24         C  0.50711722  0.99993056  0.45825703    -0.02800
C25         C  0.48130164  0.08114669  0.05164402    -0.20600
C26         C  0.46078577  0.02375138  0.05905540    -0.07200
C27         C  0.40431992  0.99677047  0.08598455     0.13700
C28         C  0.38449287  0.02703932  0.12043654    -0.20700
C29         C  0.41283621  0.08437470  0.12277902    -0.07200
C30         C  0.46003995  0.11184080  0.08395731     0.13700
C31         C  0.48766471  0.17313152  0.07435505    -0.24000
H32         H  0.01102962  0.10232813  0.01653419     0.15000
H33         H  0.34454143  0.00480070  0.14430484     0.15000
C34         C  0.35901685  0.43810531  0.07580502    -0.24000
H35         H  0.02195424  0.18705747  0.03983895     0.05200
H36         H  0.50679692  0.19480054  0.11644987     0.08400
H37         H  0.45597033  0.18514381  0.05905611     0.08400
H38         H  0.37025535  0.41433978  0.04407473     0.08400
H39         H  0.32147522  0.43875156  0.05678784     0.08400
H40         H  0.34570419  0.41547921  0.11899681     0.05200
C41         C  0.09233078  0.08084952  0.07118572    -0.20600
C42         C  0.05866133  0.02242812  0.07137916    -0.07200
C43         C  0.08287148  0.99468086  0.10800216     0.13700
C44         C  0.13001646  0.02530127  0.14378412    -0.20700
C45         C  0.16036091  0.08219417  0.14202251    -0.07200
C46         C  0.14170620  0.11038679  0.10419449     0.13700
C47         C  0.17440927  0.17202128  0.09691929    -0.24000
H48         H  0.08276816  0.10601213  0.04363698     0.15000
H49         H  0.14471700  0.00372621  0.17324780     0.15000
C50         C  0.06627283  0.43374439  0.11261926    -0.24000
H51         H  0.15616738  0.18761145  0.06252572     0.05200
H52         H  0.21853320  0.18404344  0.08281568     0.08400
H53         H  0.17402772  0.19242457  0.13974821     0.08400
H54         H  0.04415609  0.40827202  0.07493045     0.08400
H55         H  0.04321903  0.41620756  0.15537544     0.08400
H56         H  0.10463603  0.42815158  0.11295998     0.05200
C57         C  0.42216201  0.37967436  0.16045509    -0.20600
C58         C  0.40432486  0.33097400  0.12901353    -0.07200
C59         C  0.41992130  0.33290506  0.06867937     0.13700
C60         C  0.45177547  0.38421623  0.04045801    -0.20700
C61         C  0.46649830  0.43541827  0.06905392    -0.07200
C62         C  0.45392215  0.43107439  0.13323771     0.13700
C63         C  0.47420097  0.47816449  0.17770858    -0.24000
H64         H  0.41323027  0.37751883  0.20830963     0.15000
H65         H  0.47183689  0.38233641  0.99966705     0.15000
C66         C  0.40554107  0.28061720  0.03496463    -0.24000
H67         H  0.50133046  0.47229059  0.21047884     0.05200
H68         H  0.43756354  0.47749635  0.20234006     0.08400
H69         H  0.49894796  0.51985096  0.15929194     0.08400
H70         H  0.35909536  0.25462219  0.03479536     0.08400
H71         H  0.42487629  0.25773084  0.05688588     0.08400
H72         H  0.42104460  0.28876174  0.98778196     0.05200
C73         C  0.46773757  0.08549069  0.34131359    -0.20600
C74         C  0.42035187  0.08554056  0.36714326    -0.07200
C75         C  0.39575159  0.05251654  0.41792101     0.13400
C76         C  0.42160448  0.02335376  0.44270539    -0.20700
C77         C  0.47462054  0.02848897  0.42306614    -0.07200
C78         C  0.49074820  0.05318508  0.36385787     0.13700
C79         C  0.02577109  0.04160378  0.31830750    -0.24000
H80         H  0.48355239  0.10678149  0.29893885     0.15000
H81         H  0.39733302  0.49455414  0.47622386     0.15000
C82         C  0.34246773  0.04782764  0.44689352    -0.24000
H83         H  0.02648434  0.05928097  0.27356652     0.05200
H84         H  0.00575519  0.99701596  0.31087915     0.08400
H85         H  0.07038358  0.06022738  0.32956848     0.08400
H86         H  0.30648775  0.02682370  0.41647065     0.08400
H87         H  0.34808474  0.08940855  0.45792701     0.08400
H88         H  0.33156541  0.52370479  0.48914456     0.05200
C89         C  0.17011993  0.05615111  0.42670621    -0.20600
C90         C  0.18249948  0.10562542  0.39792691    -0.07200
C91         C  0.14611578  0.12848140  0.40847251     0.13700
C92         C  0.09287506  0.09526615  0.43414205    -0.20700
C93         C  0.07270682  0.03833835  0.44647562    -0.07200
C94         C  0.11634134  0.02247091  0.45186081     0.13700
C95         C  0.10793632  0.46856098  0.47618013    -0.24000
H96         H  0.20054686  0.04074748  0.42391539     0.15000
H97         H  0.06557175  0.11369961  0.43952705     0.15000
C98         C  0.16042715  0.18586834  0.38873673    -0.24000
H99         H  0.13468774  0.47620874  0.51572463     0.05200
H100        H  0.12223333  0.44696682  0.44384072     0.08400
H101        H  0.06355415  0.44147224  0.48702985     0.08400
H102        H  0.16407848  0.18904291  0.33919144     0.08400
H103        H  0.20059486  0.21588783  0.40900832     0.08400
H104        H  0.12747229  0.19728704  0.40291292     0.05200
C105        C  0.42349922  0.40974499  0.42593427    -0.20600
C106        C  0.48294571  0.44363986  0.42100342    -0.07200
C107        C  0.51085575  0.42268591  0.37917669     0.13700
C108        C  0.48151630  0.36839555  0.35809851    -0.20700
C109        C  0.42357636  0.33661024  0.36555866    -0.07200
C110        C  0.39392307  0.35779001  0.39972231     0.13700
C111        C  0.33127568  0.32484063  0.41166154    -0.24000
H112        H  0.39921283  0.42219870  0.45380489     0.15000
H113        H  0.50335682  0.35274117  0.32869129     0.15000
C114        C  0.06622950  0.45303622  0.34440770    -0.24000
H115        H  0.31575083  0.34551894  0.44421317     0.05200
H116        H  0.32135514  0.28406601  0.43057916     0.08400
H117        H  0.30786121  0.31936360  0.36976356     0.08400
H118        H  0.09404953  0.43430060  0.35228819     0.08400
H119        H  0.08976280  0.49700574  0.35032807     0.08400
H120        H  0.05764526  0.44838677  0.29563861     0.05200
Fe121      Fe  0.41489058  0.20917441  0.74633778     1.65800
Fe122      Fe  0.29012825  0.21258254  0.75424202     1.73200
Fe123      Fe  0.29261622  0.09082189  0.75827755     1.54400
O124        O  0.34641268  0.08170408  0.69647850    -0.82000
O125        O  0.24936252  0.17565251  0.83338801    -0.80300
O126        O  0.41665860  0.16385677  0.67273996    -0.84500
O127        O  0.42525915  0.15504699  0.80206416    -0.79400
O128        O  0.23939943  0.08398328  0.68968363    -0.81100
O129        O  0.34978953  0.27587736  0.80401150    -0.83900
C130        C  0.39352594  0.11219798  0.83208956     0.96900
C131        C  0.39054845  0.11210525  0.66562146     1.04300
O132        O  0.33249111  0.17082355  0.75242465    -1.12900
O133        O  0.32866126  0.25450294  0.67621374    -0.75300
O134        O  0.41666418  0.26920642  0.69002899    -0.78800
O135        O  0.34048902  0.08864322  0.82787629    -0.79500
C136        C  0.38129652  0.28050135  0.66518137     0.95800
O137        O  0.42072729  0.25752564  0.81949728    -0.77400
O138        O  0.22349267  0.15538020  0.70433363    -0.82600
C139        C  0.22587678  0.12553567  0.84909578     0.98400
C140        C  0.21123724  0.10939096  0.68012731     1.04300
O141        O  0.23515443  0.08997737  0.82164639    -0.78300
C142        C  0.39558721  0.28610899  0.82903313     1.02600
C143        C  0.99782014  0.99414311  0.53684714    -0.02800
C144        C  0.50711943  0.99993164  0.95825487    -0.02800
C145        C  0.48130189  0.08114796  0.55164514    -0.20600
C146        C  0.46078521  0.02375262  0.55905721    -0.07200
C147        C  0.40431930  0.99677255  0.58598626     0.13700
C148        C  0.38449304  0.02704247  0.62043703    -0.20700
C149        C  0.41283710  0.08437782  0.62277904    -0.07200
C150        C  0.46004130  0.11184312  0.58395781     0.13700
C151        C  0.48766816  0.17313396  0.57435584    -0.24000
H152        H  0.01103066  0.10232968  0.51653526     0.15000
H153        H  0.34454146  0.00480453  0.64430507     0.15000
C154        C  0.35901561  0.43810769  0.57580749    -0.24000
H155        H  0.02195792  0.18705929  0.53984100     0.05200
H156        H  0.50679980  0.19480243  0.61645113     0.08400
H157        H  0.45597520  0.18514751  0.55905576     0.08400
H158        H  0.37025379  0.41434164  0.54407775     0.08400
H159        H  0.32147368  0.43875367  0.55679031     0.08400
H160        H  0.34570309  0.41548236  0.61899972     0.05200
C161        C  0.09233022  0.08084944  0.57118781    -0.20600
C162        C  0.05866049  0.02242826  0.57138190    -0.07200
C163        C  0.08287062  0.99468111  0.60800544     0.13700
C164        C  0.13001636  0.02530175  0.64378645    -0.20700
C165        C  0.16036043  0.08219477  0.64202513    -0.07200
C166        C  0.14170482  0.11038702  0.60419763     0.13700
C167        C  0.17440618  0.17202165  0.59692391    -0.24000
H168        H  0.08276828  0.10601158  0.54363776     0.15000
H169        H  0.14471720  0.00372672  0.67325007     0.15000
C170        C  0.06627081  0.43374451  0.61262364    -0.24000
H171        H  0.15616357  0.18761162  0.56253087     0.05200
H172        H  0.21853024  0.18404514  0.58281987     0.08400
H173        H  0.17402371  0.19242355  0.63975355     0.08400
H174        H  0.04415360  0.40827137  0.57493536     0.08400
H175        H  0.04321688  0.41620875  0.65537993     0.08400
H176        H  0.10463345  0.42815065  0.61296553     0.05200
C177        C  0.42216120  0.37967662  0.66045862    -0.20600
C178        C  0.40432401  0.33097609  0.62901704    -0.07200
C179        C  0.41991955  0.33290679  0.56868269     0.13700
C180        C  0.45177371  0.38421752  0.54046132    -0.20700
C181        C  0.46649678  0.43541961  0.56905696    -0.07200
C182        C  0.45392088  0.43107653  0.63324083     0.13700
C183        C  0.47419999  0.47816721  0.67771116    -0.24000
H184        H  0.41323019  0.37752142  0.70831326     0.15000
H185        H  0.47183444  0.38233689  0.49967036     0.15000
C186        C  0.40553868  0.28061892  0.53496756    -0.24000
H187        H  0.50132956  0.47229374  0.71048163     0.05200
H188        H  0.43756283  0.47749956  0.70234276     0.08400
H189        H  0.49894725  0.51985344  0.65929383     0.08400
H190        H  0.35909307  0.25462430  0.53479851     0.08400
H191        H  0.42487400  0.25773238  0.55688815     0.08400
H192        H  0.42104158  0.28876327  0.48778452     0.05200
C193        C  0.46773972  0.08549266  0.84131313    -0.20600
C194        C  0.42035263  0.08554047  0.86714165    -0.07200
C195        C  0.39575170  0.05251491  0.91791799     0.13400
C196        C  0.42160551  0.02335328  0.94270322    -0.20700
C197        C  0.47462253  0.02849010  0.92306470    -0.07200
C198        C  0.49075076  0.05318733  0.86385704     0.13700
C199        C  0.02577494  0.04160757  0.81830613    -0.24000
H200        H  0.48355567  0.10678498  0.79893951     0.15000
H201        H  0.39733484  0.49455350  0.97622156     0.15000
C202        C  0.34246587  0.04782316  0.94688773    -0.24000
H203        H  0.02648853  0.05928549  0.77356550     0.05200
H204        H  0.00575965  0.99701988  0.81087681     0.08400
H205        H  0.07038725  0.06023095  0.82956763     0.08400
H206        H  0.30648756  0.02681799  0.91646292     0.08400
H207        H  0.34808054  0.08940339  0.95792139     0.08400
H208        H  0.33156226  0.52369710  0.98913938     0.05200
C209        C  0.17012236  0.05615408  0.92670553    -0.20600
C210        C  0.18250201  0.10562898  0.89792783    -0.07200
C211        C  0.14611790  0.12848437  0.90847395     0.13700
C212        C  0.09287684  0.09526814  0.93414206    -0.20700
C213        C  0.07270880  0.03834008  0.94647406    -0.07200
C214        C  0.11634348  0.02247291  0.95185868     0.13700
C215        C  0.10793761  0.46856143  0.97617581    -0.24000
H216        H  0.20054956  0.04075096  0.92391441     0.15000
H217        H  0.06557323  0.11370131  0.93952737     0.15000
C218        C  0.16042939  0.18587182  0.88874037    -0.24000
H219        H  0.13468809  0.47620766  0.01572058     0.05200
H220        H  0.12223533  0.44696857  0.94383545     0.08400
H221        H  0.06355508  0.44147199  0.98702437     0.08400
H222        H  0.16408187  0.18904812  0.83919524     0.08400
H223        H  0.20059655  0.21589067  0.90901312     0.08400
H224        H  0.12747418  0.19729004  0.90291696     0.05200
C225        C  0.42350251  0.40974633  0.92593183    -0.20600
C226        C  0.48294876  0.44364145  0.92100055    -0.07200
C227        C  0.51085879  0.42268826  0.87917275     0.13700
C228        C  0.48151964  0.36839793  0.85809420    -0.20700
C229        C  0.42358010  0.33661155  0.86555720    -0.07200
C230        C  0.39392682  0.35779078  0.89972154     0.13700
C231        C  0.33127998  0.32483997  0.91166428    -0.24000
H232        H  0.39921601  0.42219959  0.95380263     0.15000
H233        H  0.50335969  0.35274404  0.82868535     0.15000
C234        C  0.06623262  0.45303945  0.84440291    -0.24000
H235        H  0.31575532  0.34551783  0.94421695     0.05200
H236        H  0.32136183  0.28406620  0.93058257     0.08400
H237        H  0.30786324  0.31936085  0.86976769     0.08400
H238        H  0.09405264  0.43430359  0.85228236     0.08400
H239        H  0.08976598  0.49700883  0.85032457     0.08400
H240        H  0.05764828  0.44839069  0.79563362     0.05200
Fe241      Fe  0.41491494  0.70918337  0.24633751     1.65800
Fe242      Fe  0.29014199  0.71256659  0.25423696     1.73200
Fe243      Fe  0.29264937  0.59081724  0.25826772     1.54400
O244        O  0.34645429  0.58171456  0.19647207    -0.82000
O245        O  0.24938795  0.67563252  0.33338588    -0.80300
O246        O  0.41669737  0.66387064  0.17273837    -0.84500
O247        O  0.42529267  0.65506033  0.30206405    -0.79400
O248        O  0.23943168  0.58396953  0.18967029    -0.81100
O249        O  0.34979505  0.77587067  0.30400403    -0.83900
C250        C  0.39356104  0.61220801  0.33208598     0.96900
C251        C  0.39059039  0.61211868  0.16561791     1.04300
O252        O  0.33251538  0.67081936  0.25241789    -1.12900
O253        O  0.32866755  0.75448762  0.17620590    -0.75300
O254        O  0.41667666  0.76921229  0.19002907    -0.78800
O255        O  0.34052444  0.58864709  0.32786777    -0.79500
C256        C  0.38130308  0.78049695  0.16517734     0.95800
O257        O  0.42073705  0.75752893  0.31950061    -0.77400
O258        O  0.22351026  0.65535576  0.20433198    -0.82600
C259        C  0.22590237  0.62551463  0.34908979     0.98400
C260        C  0.21126276  0.60937109  0.18011902     1.04300
O261        O  0.23517863  0.58995816  0.32163454    -0.78300
C262        C  0.39559079  0.78610741  0.32903278     1.02600
C263        C  0.99784473  0.49414041  0.03684128    -0.02800
C264        C  0.50714165  0.49992860  0.45825336    -0.02800
C265        C  0.48133969  0.58115384  0.05164174    -0.20600
C266        C  0.46081639  0.52375698  0.05905145    -0.07200
C267        C  0.40435020  0.49678194  0.08597974     0.13700
C268        C  0.38452861  0.52705539  0.12043048    -0.20700
C269        C  0.41287893  0.58439074  0.12277592    -0.07200
C270        C  0.46008615  0.61185313  0.08395845     0.13700
C271        C  0.48772542  0.67314560  0.07436764    -0.24000
H272        H  0.01106858  0.60233429  0.01653169     0.15000
H273        H  0.34457553  0.50481974  0.14429657     0.15000
C274        C  0.35899234  0.93809192  0.07580767    -0.24000
H275        H  0.02201848  0.68707043  0.03985717     0.05200
H276        H  0.50685353  0.69480418  0.11646853     0.08400
H277        H  0.45604106  0.68517066  0.05906682     0.08400
H278        H  0.37023571  0.91433144  0.04407488     0.08400
H279        H  0.32144792  0.93873346  0.05679175     0.08400
H280        H  0.34568220  0.91546385  0.11899838     0.05200
C281        C  0.09235970  0.58083786  0.07118121    -0.20600
C282        C  0.05868477  0.52241788  0.07137552    -0.07200
C283        C  0.08289044  0.49466565  0.10799780     0.13700
C284        C  0.13003901  0.52528262  0.14377740    -0.20700
C285        C  0.16038770  0.58217537  0.14201527    -0.07200
C286        C  0.14173716  0.61037079  0.10418681     0.13700
C287        C  0.17444838  0.67200420  0.09690614    -0.24000
H288        H  0.08280014  0.60600285  0.04363349     0.15000
H289        H  0.14473765  0.50370559  0.17324076     0.15000
C290        C  0.06626326  0.93376157  0.11262280    -0.24000
H291        H  0.15620953  0.68759581  0.06251116     0.05200
H292        H  0.21857016  0.68401848  0.08280058     0.08400
H293        H  0.17407238  0.69241315  0.13973281     0.08400
H294        H  0.04414820  0.90828685  0.07493518     0.08400
H295        H  0.04321174  0.91622218  0.15537947     0.08400
H296        H  0.10463075  0.92817581  0.11296214     0.05200
C297        C  0.42214988  0.87967106  0.16045524    -0.20600
C298        C  0.40432181  0.83097192  0.12901304    -0.07200
C299        C  0.41992017  0.83290675  0.06867906     0.13700
C300        C  0.45176617  0.88421961  0.04045870    -0.20700
C301        C  0.46648133  0.93541958  0.06905588    -0.07200
C302        C  0.45390461  0.93107290  0.13323947     0.13700
C303        C  0.47417893  0.97816181  0.17771182    -0.24000
H304        H  0.41321737  0.87751342  0.20830948     0.15000
H305        H  0.47182956  0.88234353  0.99966799     0.15000
C306        C  0.40555251  0.78062185  0.03496363    -0.24000
H307        H  0.50131138  0.97229137  0.21048134     0.05200
H308        H  0.43753981  0.97748845  0.20234452     0.08400
H309        H  0.49892119  0.01984934  0.15929594     0.08400
H310        H  0.35910810  0.75461882  0.03479256     0.08400
H311        H  0.42489543  0.75774253  0.05688517     0.08400
H312        H  0.42105705  0.78876990  0.98778137     0.05200
C313        C  0.46777436  0.58550171  0.34131214    -0.20600
C314        C  0.42038843  0.58555228  0.36713992    -0.07200
C315        C  0.39578570  0.55252703  0.41791602     0.13400
C316        C  0.42163661  0.52336296  0.44270153    -0.20700
C317        C  0.47465143  0.52849437  0.42306304    -0.07200
C318        C  0.49078183  0.55319272  0.36385552     0.13700
C319        C  0.02580187  0.54160782  0.31830327    -0.24000
H320        H  0.48359066  0.60679357  0.29893849     0.15000
H321        H  0.39730269  0.99454408  0.47622803     0.15000
C322        C  0.34250000  0.54783707  0.44688455    -0.24000
H323        H  0.02651761  0.55928740  0.27356283     0.05200
H324        H  0.00578137  0.49702004  0.31087307     0.08400
H325        H  0.07041408  0.56022614  0.32956435     0.08400
H326        H  0.30652184  0.52683260  0.41645948     0.08400
H327        H  0.34811557  0.58941778  0.45791719     0.08400
H328        H  0.33153502  0.02369562  0.48915397     0.05200
C329        C  0.17014113  0.55612837  0.42669623    -0.20600
C330        C  0.18252728  0.60560664  0.39792184    -0.07200
C331        C  0.14615039  0.62846938  0.40847349     0.13700
C332        C  0.09290794  0.59525800  0.43414073    -0.20700
C333        C  0.07273255  0.53832893  0.44647155    -0.07200
C334        C  0.11636190  0.52245389  0.45185406     0.13700
C335        C  0.10792306  0.96858017  0.47618596    -0.24000
H336        H  0.20056289  0.54071853  0.42390066     0.15000
H337        H  0.06560912  0.61369642  0.43952691     0.15000
C338        C  0.16047013  0.68586041  0.38874539    -0.24000
H339        H  0.13467399  0.97623074  0.51573108     0.05200
H340        H  0.12222597  0.94699045  0.44384705     0.08400
H341        H  0.06354181  0.94148594  0.48703407     0.08400
H342        H  0.16411991  0.68903903  0.33920027     0.08400
H343        H  0.20064029  0.71587370  0.40901774     0.08400
H344        H  0.12752040  0.69728432  0.40292681     0.05200
C345        C  0.42348257  0.90974157  0.42593305    -0.20600
C346        C  0.48292869  0.94364163  0.42100689    -0.07200
C347        C  0.51084556  0.92269123  0.37918461     0.13700
C348        C  0.48151406  0.86839917  0.35810918    -0.20700
C349        C  0.42357388  0.83660994  0.36556089    -0.07200
C350        C  0.39391288  0.85778741  0.39971645     0.13700
C351        C  0.33126319  0.82483767  0.41164075    -0.24000
H352        H  0.39919095  0.92219189  0.45380076     0.15000
H353        H  0.50336106  0.85274711  0.32870808     0.15000
C354        C  0.06621890  0.95304805  0.34441437    -0.24000
H355        H  0.31573064  0.84551532  0.44418488     0.05200
H356        H  0.32133888  0.78406292  0.43056072     0.08400
H357        H  0.30785835  0.81936114  0.36973590     0.08400
H358        H  0.09404460  0.93431876  0.35229494     0.08400
H359        H  0.08974712  0.99701806  0.35033433     0.08400
H360        H  0.05763434  0.94839653  0.29564532     0.05200
Fe361      Fe  0.41491593  0.70918502  0.74633801     1.65800
Fe362      Fe  0.29014342  0.71256864  0.75423811     1.73200
Fe363      Fe  0.29265063  0.59081990  0.75826821     1.54400
O364        O  0.34645665  0.58171803  0.69647340    -0.82000
O365        O  0.24939176  0.67563631  0.83338830    -0.80300
O366        O  0.41669735  0.66387436  0.67273644    -0.84500
O367        O  0.42529379  0.65505998  0.80206115    -0.79400
O368        O  0.23943350  0.58397213  0.68966973    -0.81100
O369        O  0.34979905  0.77587336  0.80400246    -0.83900
C370        C  0.39356203  0.61220881  0.83208471     0.96900
C371        C  0.39059155  0.61212218  0.66561760     1.04300
O372        O  0.33251647  0.67082150  0.75241864    -1.12900
O373        O  0.32866726  0.75448727  0.67620615    -0.75300
O374        O  0.41667721  0.76921610  0.69003359    -0.78800
O375        O  0.34052523  0.58865032  0.82786925    -0.79500
C376        C  0.38130305  0.78049912  0.66518051     0.95800
O377        O  0.42073808  0.75752784  0.81950326    -0.77400
O378        O  0.22350968  0.65535661  0.70433524    -0.82600
C379        C  0.22590469  0.62551803  0.84909078     0.98400
C380        C  0.21126279  0.60937248  0.68012088     1.04300
O381        O  0.23517937  0.58996120  0.82163408    -0.78300
C382        C  0.39559374  0.78610839  0.82903281     1.02600
C383        C  0.99784361  0.49414092  0.53684362    -0.02800
C384        C  0.50714385  0.49992968  0.95825125    -0.02800
C385        C  0.48134015  0.58115543  0.55164231    -0.20600
C386        C  0.46081591  0.52375842  0.55905287    -0.07200
C387        C  0.40434968  0.49678425  0.58598122     0.13700
C388        C  0.38452867  0.52705850  0.62043107    -0.20700
C389        C  0.41287980  0.58439384  0.62277594    -0.07200
C390        C  0.46008721  0.61185552  0.58395862     0.13700
C391        C  0.48772738  0.67314806  0.57436778    -0.24000
H392        H  0.01106905  0.60233543  0.51653237     0.15000
H393        H  0.34457554  0.50482336  0.64429720     0.15000
C394        C  0.35899104  0.93809401  0.57581086    -0.24000
H395        H  0.02202184  0.68707234  0.53985992     0.05200
H396        H  0.50685460  0.69480646  0.61646900     0.08400
H397        H  0.45604372  0.68517377  0.55906590     0.08400
H398        H  0.37023390  0.91433309  0.54407832     0.08400
H399        H  0.32144666  0.93873565  0.55679476     0.08400
H400        H  0.34568102  0.91546652  0.61900208     0.05200
C401        C  0.09235897  0.58083796  0.57118284    -0.20600
C402        C  0.05868374  0.52241812  0.57137791    -0.07200
C403        C  0.08288937  0.49466606  0.60800066     0.13700
C404        C  0.13003875  0.52528355  0.64377930    -0.20700
C405        C  0.16038716  0.58217642  0.64201740    -0.07200
C406        C  0.14173566  0.61037143  0.60418940     0.13700
C407        C  0.17444488  0.67200500  0.59691029    -0.24000
H408        H  0.08279993  0.60600240  0.54363378     0.15000
H409        H  0.14473814  0.50370687  0.67324188     0.15000
C410        C  0.06626132  0.93376169  0.61262779    -0.24000
H411        H  0.15620527  0.68759680  0.56251600     0.05200
H412        H  0.21856683  0.68402056  0.58280486     0.08400
H413        H  0.17406801  0.69241230  0.63973780     0.08400
H414        H  0.04414589  0.90828693  0.57494042     0.08400
H415        H  0.04320936  0.91622354  0.65538456     0.08400
H416        H  0.10462803  0.92817448  0.61296801     0.05200
C417        C  0.42214892  0.87967312  0.66045898    -0.20600
C418        C  0.40432083  0.83097394  0.62901692    -0.07200
C419        C  0.41991817  0.83290816  0.56868282     0.13700
C420        C  0.45176413  0.88422058  0.54046217    -0.20700
C421        C  0.46647986  0.93542067  0.56905908    -0.07200
C422        C  0.45390325  0.93107464  0.63324267     0.13700
C423        C  0.47417763  0.97816395  0.67771433    -0.24000
H424        H  0.41321696  0.87751583  0.70831340     0.15000
H425        H  0.47182731  0.88234376  0.49967185     0.15000
C426        C  0.40554984  0.78062287  0.53496770    -0.24000
H427        H  0.50131040  0.97229358  0.71048343     0.05200
H428        H  0.43753878  0.97749119  0.70234716     0.08400
H429        H  0.49892014  0.01985113  0.65929802     0.08400
H430        H  0.35910552  0.75462001  0.53479732     0.08400
H431        H  0.42489265  0.75774335  0.55688925     0.08400
H432        H  0.42105347  0.78876997  0.48778506     0.05200
C433        C  0.46777656  0.58550367  0.84131135    -0.20600
C434        C  0.42038911  0.58555220  0.86713815    -0.07200
C435        C  0.39578574  0.55252518  0.91791324     0.13400
C436        C  0.42163797  0.52336253  0.94269919    -0.20700
C437        C  0.47465354  0.52849555  0.92306133    -0.07200
C438        C  0.49078473  0.55319522  0.86385466     0.13700
C439        C  0.02580641  0.54161328  0.81830283    -0.24000
H440        H  0.48359364  0.60679648  0.79893825     0.15000
H441        H  0.39730370  0.99454322  0.97622590     0.15000
C442        C  0.34249717  0.54783042  0.94687988    -0.24000
H443        H  0.02652235  0.55929362  0.77356278     0.05200
H444        H  0.00578667  0.49702597  0.81087159     0.08400
H445        H  0.07041852  0.56023175  0.82956457     0.08400
H446        H  0.30652050  0.52682476  0.91645308     0.08400
H447        H  0.34810899  0.58940940  0.95791367     0.08400
H448        H  0.33153256  0.02369054  0.98914736     0.05200
C449        C  0.17014351  0.55613080  0.92669589    -0.20600
C450        C  0.18252998  0.60560975  0.89792293    -0.07200
C451        C  0.14615302  0.62847219  0.90847495     0.13700
C452        C  0.09291021  0.59525992  0.93414086    -0.20700
C453        C  0.07273473  0.53833054  0.94647012    -0.07200
C454        C  0.11636384  0.52245522  0.95185191     0.13700
C455        C  0.10792573  0.96858215  0.97618267    -0.24000
H456        H  0.20056560  0.54072157  0.92390051     0.15000
H457        H  0.06561123  0.61369795  0.93952748     0.15000
C458        C  0.16047344  0.68586375  0.88874845    -0.24000
H459        H  0.13467683  0.97623258  0.01572775     0.05200
H460        H  0.12222969  0.94699408  0.94384292     0.08400
H461        H  0.06354447  0.94148709  0.98703010     0.08400
H462        H  0.16412409  0.68904364  0.83920328     0.08400
H463        H  0.20064318  0.71587636  0.90902203     0.08400
H464        H  0.12752372  0.69728744  0.90293008     0.05200
C465        C  0.42348601  0.90974295  0.92593038    -0.20600
C466        C  0.48293188  0.94364344  0.92100390    -0.07200
C467        C  0.51084913  0.92269396  0.87918089     0.13700
C468        C  0.48151771  0.86840188  0.85810495    -0.20700
C469        C  0.42357783  0.83661156  0.86555901    -0.07200
C470        C  0.39391687  0.85778824  0.89971538     0.13700
C471        C  0.33126773  0.82483664  0.91164248    -0.24000
H472        H  0.39919436  0.92219272  0.95379836     0.15000
H473        H  0.50336421  0.85275055  0.82870206     0.15000
C474        C  0.06622148  0.95305038  0.84441027    -0.24000
H475        H  0.31573504  0.84551366  0.94418710     0.05200
H476        H  0.32134564  0.78406252  0.93056287     0.08400
H477        H  0.30786094  0.81935856  0.86973882     0.08400
H478        H  0.09404676  0.93432040  0.85228998     0.08400
H479        H  0.08974979  0.99701998  0.85033149     0.08400
H480        H  0.05763617  0.94839931  0.79564118     0.05200
Fe481      Fe  0.91488945  0.20917287  0.24633758     1.65800
Fe482      Fe  0.79012661  0.21258066  0.25424094     1.73200
Fe483      Fe  0.79261491  0.09081927  0.25827690     1.54400
O484        O  0.84641024  0.08170079  0.19647686    -0.82000
O485        O  0.74935857  0.17564842  0.33338557    -0.80300
O486        O  0.91665875  0.16385310  0.17274219    -0.84500
O487        O  0.92525815  0.15504781  0.30206739    -0.79400
O488        O  0.73939751  0.08398065  0.18968379    -0.81100
O489        O  0.84978526  0.27587480  0.30401328    -0.83900
C490        C  0.89352505  0.11219737  0.33209080     0.96900
C491        C  0.89054735  0.11210187  0.16562172     1.04300
O492        O  0.83248978  0.17082157  0.25242397    -1.12900
O493        O  0.82866140  0.25450355  0.17621352    -0.75300
O494        O  0.91666345  0.26920278  0.19002488    -0.78800
O495        O  0.84048840  0.08864004  0.32787453    -0.79500
C496        C  0.88129642  0.28049932  0.16517844     0.95800
O497        O  0.92072590  0.25752664  0.31949506    -0.77400
O498        O  0.72349327  0.15537951  0.20433031    -0.82600
C499        C  0.72587448  0.12553201  0.34909498     0.98400
C500        C  0.71123696  0.10938963  0.18012544     1.04300
O501        O  0.73515353  0.08997408  0.32164683    -0.78300
C502        C  0.89558398  0.28610803  0.32903337     1.02600
C503        C  0.49782129  0.99414253  0.03684463    -0.02800
C504        C  0.00711727  0.99993061  0.45825715    -0.02800
C505        C  0.98130153  0.08114641  0.05164413    -0.20600
C506        C  0.96078544  0.02375118  0.05905538    -0.07200
C507        C  0.90431965  0.99677040  0.08598464     0.13700
C508        C  0.88449289  0.02703951  0.12043643    -0.20700
C509        C  0.91283633  0.08437487  0.12277890    -0.07200
C510        C  0.96004011  0.11184074  0.08395714     0.13700
C511        C  0.98766522  0.17313133  0.07435436    -0.24000
H512        H  0.51102982  0.10232875  0.01653407     0.15000
H513        H  0.84454153  0.00480100  0.14430479     0.15000
C514        C  0.85901626  0.43810557  0.07580497    -0.24000
H515        H  0.52195359  0.18705779  0.03983978     0.05200
H516        H  0.00679718  0.19480002  0.11644924     0.08400
H517        H  0.95597098  0.18514367  0.05905534     0.08400
H518        H  0.87025452  0.41433987  0.04407489     0.08400
H519        H  0.82147468  0.43875228  0.05678775     0.08400
H520        H  0.84570355  0.41547946  0.11899674     0.05200
C521        C  0.59233072  0.08084949  0.07118582    -0.20600
C522        C  0.55866144  0.02242806  0.07137913    -0.07200
C523        C  0.58287150  0.99468075  0.10800204     0.13700
C524        C  0.63001643  0.02530125  0.14378391    -0.20700
C525        C  0.66036082  0.08219418  0.14202252    -0.07200
C526        C  0.64170607  0.11038673  0.10419461     0.13700
C527        C  0.67440896  0.17202107  0.09691961    -0.24000
H528        H  0.58276797  0.10601204  0.04363717     0.15000
H529        H  0.64471703  0.00372619  0.17324742     0.15000
C530        C  0.56627373  0.43374437  0.11261909    -0.24000
H531        H  0.65616688  0.18761090  0.06252600     0.05200
H532        H  0.71853276  0.18404292  0.08281584     0.08400
H533        H  0.67402741  0.19242437  0.13974857     0.08400
H534        H  0.54415691  0.40827204  0.07493042     0.08400
H535        H  0.54322006  0.41620740  0.15537521     0.08400
H536        H  0.60463744  0.42815208  0.11295976     0.05200
C537        C  0.92216204  0.37967439  0.16045507    -0.20600
C538        C  0.90432482  0.33097400  0.12901349    -0.07200
C539        C  0.91992147  0.33290524  0.06867935     0.13700
C540        C  0.95177516  0.38421637  0.04045806    -0.20700
C541        C  0.96649802  0.43541838  0.06905394    -0.07200
C542        C  0.95392211  0.43107448  0.13323774     0.13700
C543        C  0.97420126  0.47816456  0.17770860    -0.24000
H544        H  0.91323099  0.37751886  0.20830970     0.15000
H545        H  0.97183611  0.38233644  0.99966699     0.15000
C546        C  0.90554244  0.28061777  0.03496443    -0.24000
H547        H  0.00133088  0.47229062  0.21047869     0.05200
H548        H  0.93756392  0.47749640  0.20234028     0.08400
H549        H  0.99894841  0.51985101  0.15929197     0.08400
H550        H  0.85909706  0.25462236  0.03479470     0.08400
H551        H  0.92487820  0.25773197  0.05688593     0.08400
H552        H  0.92104615  0.28876255  0.98778167     0.05200
C553        C  0.96773764  0.08549068  0.34131426    -0.20600
C554        C  0.92035185  0.08554052  0.36714342    -0.07200
C555        C  0.89575132  0.05251641  0.41792069     0.13400
C556        C  0.92160417  0.02335368  0.44270539    -0.20700
C557        C  0.97462047  0.02848891  0.42306650    -0.07200
C558        C  0.99074815  0.05318495  0.36385834     0.13700
C559        C  0.52577124  0.04160384  0.31830732    -0.24000
H560        H  0.98355282  0.10678176  0.29894009     0.15000
H561        H  0.89733322  0.49455456  0.47622413     0.15000
C562        C  0.84246742  0.04782792  0.44689218    -0.24000
H563        H  0.52648473  0.05928111  0.27356635     0.05200
H564        H  0.50575518  0.99701599  0.31087907     0.08400
H565        H  0.57038362  0.06022728  0.32956869     0.08400
H566        H  0.80648756  0.02682407  0.41646896     0.08400
H567        H  0.84808496  0.08940922  0.45792514     0.08400
H568        H  0.83156652  0.52370610  0.48914540     0.05200
C569        C  0.67011984  0.05615127  0.42670609    -0.20600
C570        C  0.68249919  0.10562546  0.39792680    -0.07200
C571        C  0.64611544  0.12848138  0.40847251     0.13700
C572        C  0.59287484  0.09526625  0.43414220    -0.20700
C573        C  0.57270667  0.03833838  0.44647561    -0.07200
C574        C  0.61634128  0.02247093  0.45186073     0.13700
C575        C  0.60793560  0.46856101  0.47618054    -0.24000
H576        H  0.70054707  0.04074814  0.42391541     0.15000
H577        H  0.56557144  0.11369982  0.43952708     0.15000
C578        C  0.66042653  0.18586804  0.38873649    -0.24000
H579        H  0.63468681  0.47620853  0.51572523     0.05200
H580        H  0.62223199  0.44696664  0.44384096     0.08400
H581        H  0.56355326  0.44147251  0.48703026     0.08400
H582        H  0.66407782  0.18904244  0.33919114     0.08400
H583        H  0.70059401  0.21588762  0.40900814     0.08400
H584        H  0.62747161  0.19728659  0.40291288     0.05200
C585        C  0.92349905  0.40974522  0.42593443    -0.20600
C586        C  0.98294556  0.44363972  0.42100369    -0.07200
C587        C  0.01085551  0.42268554  0.37917723     0.13700
C588        C  0.98151599  0.36839522  0.35809881    -0.20700
C589        C  0.92357606  0.33661013  0.36555904    -0.07200
C590        C  0.89392289  0.35779003  0.39972284     0.13700
C591        C  0.83127552  0.32484059  0.41166268    -0.24000
H592        H  0.89921277  0.42219912  0.45380513     0.15000
H593        H  0.00335656  0.35274046  0.32869203     0.15000
C594        C  0.56622928  0.45303670  0.34440640    -0.24000
H595        H  0.81575069  0.34551880  0.44421461     0.05200
H596        H  0.82135538  0.28406611  0.43058041     0.08400
H597        H  0.80786054  0.31936273  0.36976505     0.08400
H598        H  0.59404989  0.43430163  0.35228641     0.08400
H599        H  0.58976192  0.49700616  0.35032708     0.08400
H600        H  0.55764431  0.44838706  0.29563721     0.05200
Fe601      Fe  0.91489054  0.20917440  0.74633806     1.65800
Fe602      Fe  0.79012813  0.21258252  0.75424210     1.73200
Fe603      Fe  0.79261612  0.09082188  0.75827749     1.54400
O604        O  0.84641261  0.08170418  0.69647845    -0.82000
O605        O  0.74936246  0.17565228  0.83338814    -0.80300
O606        O  0.91665879  0.16385682  0.67274028    -0.84500
O607        O  0.92525903  0.15504704  0.80206452    -0.79400
O608        O  0.73939936  0.08398326  0.68968347    -0.81100
O609        O  0.84978940  0.27587741  0.80401162    -0.83900
C610        C  0.89352574  0.11219792  0.83208976     0.96900
C611        C  0.89054858  0.11210532  0.66562170     1.04300
O612        O  0.83249103  0.17082357  0.75242476    -1.12900
O613        O  0.82866125  0.25450303  0.67621378    -0.75300
O614        O  0.91666421  0.26920634  0.69002924    -0.78800
O615        O  0.84048886  0.08864306  0.82787635    -0.79500
C616        C  0.88129657  0.28050140  0.66518165     0.95800
O617        O  0.92072712  0.25752565  0.81949756    -0.77400
O618        O  0.72349267  0.15538013  0.70433363    -0.82600
C619        C  0.72587685  0.12553540  0.84909585     0.98400
C620        C  0.71123718  0.10939096  0.68012719     1.04300
O621        O  0.73515432  0.08997722  0.82164619    -0.78300
C622        C  0.89558704  0.28610904  0.82903333     1.02600
C623        C  0.49782009  0.99414298  0.53684721    -0.02800
C624        C  0.00711939  0.99993170  0.95825480    -0.02800
C625        C  0.98130205  0.08114815  0.55164493    -0.20600
C626        C  0.96078528  0.02375285  0.55905699    -0.07200
C627        C  0.90431945  0.99677293  0.58598601     0.13700
C628        C  0.88449297  0.02704264  0.62043694    -0.20700
C629        C  0.91283711  0.08437797  0.62277903    -0.07200
C630        C  0.96004141  0.11184322  0.58395777     0.13700
C631        C  0.98766841  0.17313397  0.57435573    -0.24000
H632        H  0.51103013  0.10232938  0.51653525     0.15000
H633        H  0.84454130  0.00480457  0.64430511     0.15000
C634        C  0.85901596  0.43810756  0.57580797    -0.24000
H635        H  0.52195789  0.18705957  0.53984144     0.05200
H636        H  0.00680014  0.19480254  0.61645095     0.08400
H637        H  0.95597542  0.18514732  0.55905531     0.08400
H638        H  0.87025396  0.41434153  0.54407795     0.08400
H639        H  0.82147419  0.43875356  0.55679078     0.08400
H640        H  0.84570342  0.41548219  0.61900025     0.05200
C641        C  0.59233021  0.08084947  0.57118775    -0.20600
C642        C  0.55866052  0.02242829  0.57138181    -0.07200
C643        C  0.58287065  0.99468121  0.60800541     0.13700
C644        C  0.63001644  0.02530192  0.64378627    -0.20700
C645        C  0.66036040  0.08219490  0.64202501    -0.07200
C646        C  0.64170479  0.11038716  0.60419752     0.13700
C647        C  0.67440610  0.17202178  0.59692391    -0.24000
H648        H  0.58276804  0.10601154  0.54363776     0.15000
H649        H  0.64471717  0.00372708  0.67325009     0.15000
C650        C  0.56627135  0.43374491  0.61262419    -0.24000
H651        H  0.65616338  0.18761167  0.56253092     0.05200
H652        H  0.71853016  0.18404533  0.58281980     0.08400
H653        H  0.67402362  0.19242361  0.63975359     0.08400
H654        H  0.54415431  0.40827167  0.57493613     0.08400
H655        H  0.54321759  0.41620924  0.65538062     0.08400
H656        H  0.60463440  0.42815162  0.61296614     0.05200
C657        C  0.92216132  0.37967666  0.66045871    -0.20600
C658        C  0.90432396  0.33097606  0.62901727    -0.07200
C659        C  0.91991927  0.33290660  0.56868293     0.13700
C660        C  0.95177338  0.38421734  0.54046140    -0.20700
C661        C  0.96649673  0.43541957  0.56905702    -0.07200
C662        C  0.95392102  0.43107655  0.63324094     0.13700
C663        C  0.97420015  0.47816723  0.67771132    -0.24000
H664        H  0.91323076  0.37752153  0.70831346     0.15000
H665        H  0.97183424  0.38233669  0.49967054     0.15000
C666        C  0.90553810  0.28061860  0.53496803    -0.24000
H667        H  0.00132994  0.47229376  0.71048155     0.05200
H668        H  0.93756316  0.47749963  0.70234327     0.08400
H669        H  0.99894728  0.51985345  0.65929394     0.08400
H670        H  0.85909237  0.25462400  0.53479954     0.08400
H671        H  0.92487347  0.25773219  0.55688885     0.08400
H672        H  0.92104091  0.28876282  0.48778500     0.05200
C673        C  0.96773962  0.08549258  0.84131327    -0.20600
C674        C  0.92035240  0.08554034  0.86714162    -0.07200
C675        C  0.89575157  0.05251483  0.91791803     0.13400
C676        C  0.92160580  0.02335360  0.94270310    -0.20700
C677        C  0.97462266  0.02849018  0.92306459    -0.07200
C678        C  0.99075091  0.05318738  0.86385700     0.13700
C679        C  0.52577450  0.04160728  0.81830609    -0.24000
H680        H  0.98355532  0.10678459  0.79893959     0.15000
H681        H  0.89733465  0.49455393  0.97622178     0.15000
C682        C  0.84246576  0.04782277  0.94688833    -0.24000
H683        H  0.52648829  0.05928524  0.77356538     0.05200
H684        H  0.50575905  0.99701948  0.81087694     0.08400
H685        H  0.57038673  0.06023101  0.82956770     0.08400
H686        H  0.80648726  0.02681794  0.91646387     0.08400
H687        H  0.84808024  0.08940287  0.95792205     0.08400
H688        H  0.83156291  0.52369948  0.98913939     0.05200
C689        C  0.67012259  0.05615378  0.92670574    -0.20600
C690        C  0.68250217  0.10562855  0.89792786    -0.07200
C691        C  0.64611840  0.12848413  0.90847412     0.13700
C692        C  0.59287711  0.09526806  0.93414203    -0.20700
C693        C  0.57270898  0.03834003  0.94647416    -0.07200
C694        C  0.61634366  0.02247281  0.95185892     0.13700
C695        C  0.60793842  0.46856162  0.97617535    -0.24000
H696        H  0.70054964  0.04075025  0.92391421     0.15000
H697        H  0.56557351  0.11370124  0.93952713     0.15000
C698        C  0.66043055  0.18587169  0.88874040    -0.24000
H699        H  0.63468899  0.47620802  0.01572011     0.05200
H700        H  0.62223641  0.44696893  0.94383478     0.08400
H701        H  0.56355618  0.44147206  0.98702418     0.08400
H702        H  0.66408304  0.18904746  0.83919522     0.08400
H703        H  0.70059798  0.21589054  0.90901315     0.08400
H704        H  0.62747558  0.19729007  0.90291652     0.05200
C705        C  0.92350235  0.40974640  0.92593187    -0.20600
C706        C  0.98294866  0.44364154  0.92100061    -0.07200
C707        C  0.01085880  0.42268828  0.87917292     0.13700
C708        C  0.98151949  0.36839794  0.85809444    -0.20700
C709        C  0.92357995  0.33661166  0.86555725    -0.07200
C710        C  0.89392668  0.35779080  0.89972160     0.13700
C711        C  0.83127986  0.32483976  0.91166399    -0.24000
H712        H  0.89921583  0.42219973  0.95380271     0.15000
H713        H  0.00335963  0.35274374  0.82868634     0.15000
C714        C  0.56623223  0.45303976  0.84440248    -0.24000
H715        H  0.81575511  0.34551759  0.94421638     0.05200
H716        H  0.82136171  0.28406593  0.93058223     0.08400
H717        H  0.80786323  0.31936080  0.86976730     0.08400
H718        H  0.59405236  0.43430415  0.85228169     0.08400
H719        H  0.58976536  0.49700906  0.85032466     0.08400
H720        H  0.55764754  0.44839118  0.79563319     0.05200
Fe721      Fe  0.91491495  0.70918345  0.24633734     1.65800
Fe722      Fe  0.79014192  0.71256670  0.25423691     1.73200
Fe723      Fe  0.79264945  0.59081731  0.25826783     1.54400
O724        O  0.84645435  0.58171461  0.19647210    -0.82000
O725        O  0.74938809  0.67563261  0.33338583    -0.80300
O726        O  0.91669734  0.66387067  0.17273818    -0.84500
O727        O  0.92529293  0.65506058  0.30206379    -0.79400
O728        O  0.73943175  0.58396944  0.18967036    -0.81100
O729        O  0.84979503  0.77587073  0.30400391    -0.83900
C730        C  0.89356135  0.61220831  0.33208583     0.96900
C731        C  0.89059045  0.61211869  0.16561788     1.04300
O732        O  0.83251532  0.67081949  0.25241794    -1.12900
O733        O  0.82866742  0.75448779  0.17620587    -0.75300
O734        O  0.91667648  0.76921231  0.19002902    -0.78800
O735        O  0.84052470  0.58864738  0.32786781    -0.79500
C736        C  0.88130293  0.78049705  0.16517729     0.95800
O737        O  0.92073710  0.75752894  0.31950047    -0.77400
O738        O  0.72351018  0.65535572  0.20433196    -0.82600
C739        C  0.72590242  0.62551476  0.34908981     0.98400
C740        C  0.71126274  0.60937098  0.18011909     1.04300
O741        O  0.73517879  0.58995828  0.32163472    -0.78300
C742        C  0.89559078  0.78610738  0.32903273     1.02600
C743        C  0.49784480  0.49414028  0.03684128    -0.02800
C744        C  0.00714158  0.49992854  0.45825347    -0.02800
C745        C  0.98133979  0.58115395  0.05164166    -0.20600
C746        C  0.96081630  0.52375704  0.05905146    -0.07200
C747        C  0.90435003  0.49678200  0.08597985     0.13700
C748        C  0.88452864  0.52705545  0.12043069    -0.20700
C749        C  0.91287898  0.58439077  0.12277587    -0.07200
C750        C  0.96008597  0.61185321  0.08395807     0.13700
C751        C  0.98772455  0.67314566  0.07436666    -0.24000
H752        H  0.51106827  0.60233421  0.01653159     0.15000
H753        H  0.84457566  0.50481985  0.14429698     0.15000
C754        C  0.85899191  0.93809184  0.07580826    -0.24000
H755        H  0.52201984  0.68707038  0.03985867     0.05200
H756        H  0.00685254  0.69480485  0.11646726     0.08400
H757        H  0.95603985  0.68517025  0.05906555     0.08400
H758        H  0.87023513  0.91433136  0.04407544     0.08400
H759        H  0.82144763  0.93873361  0.05679228     0.08400
H760        H  0.84568137  0.91546370  0.11899908     0.05200
C761        C  0.59235947  0.58083737  0.07118143    -0.20600
C762        C  0.55868467  0.52241755  0.07137569    -0.07200
C763        C  0.58289055  0.49466540  0.10799792     0.13700
C764        C  0.63003891  0.52528246  0.14377765    -0.20700
C765        C  0.66038759  0.58217516  0.14201539    -0.07200
C766        C  0.64173687  0.61037041  0.10418683     0.13700
C767        C  0.67444778  0.67200366  0.09690581    -0.24000
H768        H  0.58279955  0.60600216  0.04363394     0.15000
H769        H  0.64473761  0.50370555  0.17324107     0.15000
C770        C  0.56626331  0.93376143  0.11262267    -0.24000
H771        H  0.65620845  0.68759490  0.06251079     0.05200
H772        H  0.71856949  0.68401779  0.08280024     0.08400
H773        H  0.67407171  0.69241254  0.13973239     0.08400
H774        H  0.54414783  0.90828672  0.07493522     0.08400
H775        H  0.54321202  0.91622226  0.15537949     0.08400
H776        H  0.60463062  0.92817535  0.11296173     0.05200
C777        C  0.92214972  0.87967116  0.16045511    -0.20600
C778        C  0.90432168  0.83097201  0.12901288    -0.07200
C779        C  0.91992041  0.83290678  0.06867900     0.13700
C780        C  0.95176627  0.88421958  0.04045846    -0.20700
C781        C  0.96648129  0.93541960  0.06905572    -0.07200
C782        C  0.95390446  0.93107300  0.13323940     0.13700
C783        C  0.97417833  0.97816187  0.17771196    -0.24000
H784        H  0.91321719  0.87751356  0.20830937     0.15000
H785        H  0.97183000  0.88234330  0.99966786     0.15000
C786        C  0.90555360  0.78062180  0.03496404    -0.24000
H787        H  0.00131075  0.97229145  0.21048150     0.05200
H788        H  0.93753896  0.97748850  0.20234453     0.08400
H789        H  0.99892083  0.01984938  0.15929622     0.08400
H790        H  0.85910942  0.75461850  0.03479251     0.08400
H791        H  0.92489686  0.75774291  0.05688624     0.08400
H792        H  0.92105814  0.78876944  0.98778180     0.05200
C793        C  0.96777457  0.58550143  0.34131180    -0.20600
C794        C  0.92038879  0.58555247  0.36713970    -0.07200
C795        C  0.89578620  0.55252748  0.41791608     0.13400
C796        C  0.92163679  0.52336315  0.44270159    -0.20700
C797        C  0.97465142  0.52849426  0.42306301    -0.07200
C798        C  0.99078183  0.55319220  0.36385536     0.13700
C799        C  0.52580169  0.54160886  0.31830296    -0.24000
H800        H  0.98359094  0.60679299  0.29893795     0.15000
H801        H  0.89730207  0.99454405  0.47622793     0.15000
C802        C  0.84250104  0.54783821  0.44688522    -0.24000
H803        H  0.52651742  0.55928897  0.27356260     0.05200
H804        H  0.50578130  0.49702124  0.31087259     0.08400
H805        H  0.57041371  0.56022728  0.32956423     0.08400
H806        H  0.80652259  0.52683393  0.41646065     0.08400
H807        H  0.84811737  0.58941923  0.45791768     0.08400
H808        H  0.83153440  0.02369616  0.48915245     0.05200
C809        C  0.67014083  0.55612841  0.42669632    -0.20600
C810        C  0.68252727  0.60560670  0.39792178    -0.07200
C811        C  0.64615071  0.62846962  0.40847346     0.13700
C812        C  0.59290820  0.59525816  0.43414055    -0.20700
C813        C  0.57273250  0.53832904  0.44647146    -0.07200
C814        C  0.61636159  0.52245386  0.45185408     0.13700
C815        C  0.60792348  0.96858034  0.47618614    -0.24000
H816        H  0.70056256  0.54071886  0.42390118     0.15000
H817        H  0.56560977  0.61369678  0.43952735     0.15000
C818        C  0.66047107  0.68586076  0.38874534    -0.24000
H819        H  0.63467488  0.97623099  0.51573103     0.05200
H820        H  0.62222670  0.94699105  0.44384702     0.08400
H821        H  0.56354230  0.94148588  0.48703446     0.08400
H822        H  0.66412076  0.68903920  0.33920019     0.08400
H823        H  0.70064143  0.71587409  0.40901756     0.08400
H824        H  0.62752163  0.69728492  0.40292648     0.05200
C825        C  0.92348240  0.90974164  0.42593314    -0.20600
C826        C  0.98292868  0.94364179  0.42100692    -0.07200
C827        C  0.01084584  0.92269166  0.37918468     0.13700
C828        C  0.98151430  0.86839950  0.35810925    -0.20700
C829        C  0.92357391  0.83661010  0.36556086    -0.07200
C830        C  0.89391276  0.85778749  0.39971631     0.13700
C831        C  0.83126277  0.82483780  0.41163985    -0.24000
H832        H  0.89919049  0.92219215  0.45380031     0.15000
H833        H  0.00336147  0.85274757  0.32870828     0.15000
C834        C  0.56621814  0.95304729  0.34441407    -0.24000
H835        H  0.81572981  0.84551533  0.44418358     0.05200
H836        H  0.82133775  0.78406278  0.43055954     0.08400
H837        H  0.80785841  0.81936187  0.36973465     0.08400
H838        H  0.59404330  0.93431748  0.35229490     0.08400
H839        H  0.58974622  0.99701702  0.35033442     0.08400
H840        H  0.55763325  0.94839585  0.29564493     0.05200
Fe841      Fe  0.91491606  0.70918504  0.74633781     1.65800
Fe842      Fe  0.79014352  0.71256863  0.75423810     1.73200
Fe843      Fe  0.79265062  0.59081995  0.75826819     1.54400
O844        O  0.84645664  0.58171805  0.69647361    -0.82000
O845        O  0.74939188  0.67563646  0.83338841    -0.80300
O846        O  0.91669732  0.66387432  0.67273620    -0.84500
O847        O  0.92529374  0.65505988  0.80206084    -0.79400
O848        O  0.73943359  0.58397221  0.68966962    -0.81100
O849        O  0.84979922  0.77587343  0.80400231    -0.83900
C850        C  0.89356197  0.61220883  0.83208451     0.96900
C851        C  0.89059142  0.61212207  0.66561765     1.04300
O852        O  0.83251664  0.67082153  0.75241853    -1.12900
O853        O  0.82866731  0.75448724  0.67620597    -0.75300
O854        O  0.91667739  0.76921618  0.69003335    -0.78800
O855        O  0.84052513  0.58865037  0.82786921    -0.79500
C856        C  0.88130315  0.78049910  0.66518020     0.95800
O857        O  0.92073822  0.75752788  0.81950301    -0.77400
O858        O  0.72350974  0.65535659  0.70433537    -0.82600
C859        C  0.72590475  0.62551821  0.84909078     0.98400
C860        C  0.71126292  0.60937257  0.68012081     1.04300
O861        O  0.73517929  0.58996136  0.82163387    -0.78300
C862        C  0.89559395  0.78610852  0.82903257     1.02600
C863        C  0.49784361  0.49414089  0.53684356    -0.02800
C864        C  0.00714379  0.49992972  0.95825128    -0.02800
C865        C  0.98134014  0.58115552  0.55164251    -0.20600
C866        C  0.96081594  0.52375852  0.55905301    -0.07200
C867        C  0.90434977  0.49678424  0.58598148     0.13700
C868        C  0.88452857  0.52705831  0.62043130    -0.20700
C869        C  0.91287965  0.58439362  0.62277620    -0.07200
C870        C  0.96008702  0.61185540  0.58395891     0.13700
C871        C  0.98772702  0.67314796  0.57436815    -0.24000
H872        H  0.51106881  0.60233522  0.51653200     0.15000
H873        H  0.84457515  0.50482305  0.64429729     0.15000
C874        C  0.85899122  0.93809473  0.57580951    -0.24000
H875        H  0.52202213  0.68707233  0.53985932     0.05200
H876        H  0.00685428  0.69480651  0.61646932     0.08400
H877        H  0.95604322  0.68517364  0.55906655     0.08400
H878        H  0.87023439  0.91433385  0.54407710     0.08400
H879        H  0.82144716  0.93873691  0.55679309     0.08400
H880        H  0.84568081  0.91546710  0.61900032     0.05200
C881        C  0.59235879  0.58083800  0.57118281    -0.20600
C882        C  0.55868373  0.52241814  0.57137802    -0.07200
C883        C  0.58288955  0.49466630  0.60800086     0.13700
C884        C  0.63003904  0.52528372  0.64377937    -0.20700
C885        C  0.66038720  0.58217655  0.64201739    -0.07200
C886        C  0.64173558  0.61037147  0.60418931     0.13700
C887        C  0.67444449  0.67200508  0.59691002    -0.24000
H888        H  0.58279936  0.60600244  0.54363415     0.15000
H889        H  0.64473883  0.50370709  0.67324173     0.15000
C890        C  0.56626153  0.93376186  0.61262777    -0.24000
H891        H  0.65620455  0.68759672  0.56251579     0.05200
H892        H  0.71856647  0.68402081  0.58280468     0.08400
H893        H  0.67406763  0.69241236  0.63973750     0.08400
H894        H  0.54414560  0.90828671  0.57494080     0.08400
H895        H  0.54320998  0.91622407  0.65538479     0.08400
H896        H  0.60462834  0.92817480  0.61296818     0.05200
C897        C  0.92214879  0.87967319  0.66045864    -0.20600
C898        C  0.90432097  0.83097399  0.62901646    -0.07200
C899        C  0.91991837  0.83290843  0.56868225     0.13700
C900        C  0.95176457  0.88422090  0.54046196    -0.20700
C901        C  0.96647994  0.93542084  0.56905895    -0.07200
C902        C  0.95390303  0.93107474  0.63324244     0.13700
C903        C  0.97417710  0.97816391  0.67771442    -0.24000
H904        H  0.91321675  0.87751606  0.70831299     0.15000
H905        H  0.97182787  0.88234420  0.49967149     0.15000
C906        C  0.90555007  0.78062359  0.53496619    -0.24000
H907        H  0.00130978  0.97229347  0.71048356     0.05200
H908        H  0.93753830  0.97749114  0.70234757     0.08400
H909        H  0.99891975  0.01985106  0.65929820     0.08400
H910        H  0.85910577  0.75462069  0.53479536     0.08400
H911        H  0.92489273  0.75774394  0.55688720     0.08400
H912        H  0.92105436  0.78877149  0.48778355     0.05200
C913        C  0.96777657  0.58550374  0.84131127    -0.20600
C914        C  0.92038913  0.58555230  0.86713788    -0.07200
C915        C  0.89578590  0.55252573  0.91791312     0.13400
C916        C  0.92163784  0.52336272  0.94269919    -0.20700
C917        C  0.97465342  0.52849556  0.92306137    -0.07200
C918        C  0.99078464  0.55319525  0.86385468     0.13700
C919        C  0.52580659  0.54161331  0.81830288    -0.24000
H920        H  0.98359396  0.60679685  0.79893833     0.15000
H921        H  0.89730425  0.99454384  0.97622572     0.15000
C922        C  0.84249803  0.54783253  0.94687996    -0.24000
H923        H  0.52652282  0.55929379  0.77356289     0.05200
H924        H  0.50578701  0.49702601  0.81087156     0.08400
H925        H  0.57041865  0.56023209  0.82956486     0.08400
H926        H  0.80652096  0.52682713  0.91645374     0.08400
H927        H  0.84811069  0.58941220  0.95791304     0.08400
H928        H  0.83153271  0.02369001  0.98914810     0.05200
C929        C  0.67014358  0.55613114  0.92669576    -0.20600
C930        C  0.68252998  0.60561007  0.89792289    -0.07200
C931        C  0.64615292  0.62847242  0.90847497     0.13700
C932        C  0.59291018  0.59525998  0.93414095    -0.20700
C933        C  0.57273481  0.53833059  0.94647026    -0.07200
C934        C  0.61636403  0.52245539  0.95185181     0.13700
C935        C  0.60792561  0.96858198  0.97618291    -0.24000
H936        H  0.70056572  0.54072202  0.92390033     0.15000
H937        H  0.56561115  0.61369797  0.93952756     0.15000
C938        C  0.66047293  0.68586395  0.88874858    -0.24000
H939        H  0.63467668  0.97623231  0.01572792     0.05200
H940        H  0.62222946  0.94699363  0.94384349     0.08400
H941        H  0.56354426  0.94148716  0.98703033     0.08400
H942        H  0.66412370  0.68904386  0.83920348     0.08400
H943        H  0.70064266  0.71587660  0.90902199     0.08400
H944        H  0.62752302  0.69728763  0.90293013     0.05200
C945        C  0.92348585  0.90974290  0.92593063    -0.20600
C946        C  0.98293176  0.94364345  0.92100401    -0.07200
C947        C  0.01084882  0.92269394  0.87918077     0.13700
C948        C  0.98151756  0.86840191  0.85810514    -0.20700
C949        C  0.92357786  0.83661156  0.86555917    -0.07200
C950        C  0.89391683  0.85778822  0.89971527     0.13700
C951        C  0.83126780  0.82483623  0.91164213    -0.24000
H952        H  0.89919399  0.92219271  0.95379857     0.15000
H953        H  0.00336412  0.85275036  0.82870282     0.15000
C954        C  0.56622249  0.95305096  0.84441152    -0.24000
H955        H  0.81573517  0.84551310  0.94418677     0.05200
H956        H  0.82134597  0.78406218  0.93056263     0.08400
H957        H  0.80786096  0.81935805  0.86973843     0.08400
H958        H  0.59404802  0.93432119  0.85229139     0.08400
H959        H  0.58975046  0.99702093  0.85033203     0.08400
H960        H  0.55763808  0.94840037  0.79564263     0.05200
loop_ 
_geom_bond_atom_site_label_1 
_geom_bond_atom_site_label_2 
_geom_bond_distance 
_geom_bond_site_symmetry_2 
_ccdc_geom_bond_type 
Fe1          O17   2.064       .  S
Fe1           O7   2.070       .  S
Fe1          O14   2.068       .  S
Fe1           O6   2.072       .  S
Fe1          O12   1.959       .  S
Fe2           O5   2.064       .  S
Fe2           O9   2.068       .  S
Fe2          O13   2.068       .  S
Fe2          O18   2.085       .  S
Fe2          O12   1.963       .  S
Fe3          O21   2.066       .  S
Fe3           O8   2.066       .  S
Fe3          O15   2.058       .  S
Fe3           O4   2.078       .  S
Fe3          O12   1.952       .  S
O4           C11   1.275       .  A
O5           C19   1.268       .  A
O6           C11   1.271       .  A
O7           C10   1.270       .  A
O8           C20   1.271       .  A
O9           C22   1.269       .  A
C10          O15   1.265       .  A
C10          C74   1.484       .  S
C11          C29   1.502       .  S
O13          C16   1.270       .  A
O14          C16   1.270       .  A
C16          C58   1.469       .  S
O17          C22   1.271       .  A
O18          C20   1.271       .  A
C19          O21   1.271       .  A
C19          C90   1.485       .  S
C20          C45   1.495       .  S
C22         C109   1.483       .  S
C23          C42   1.651   1_665  S
C23         C506   1.625   1_565  S
C23         C781   1.599       .  S
C23         C624   1.766   1_654  S
C24          C77   1.639   1_565  S
C24         C573   1.591   1_565  S
C24         C346   1.607       .  S
C24         C623   1.766       .  S
C25          C26   1.420       .  A
C25          C30   1.412       .  A
C25         H512   1.066       .  S
C26         C503   1.625   1_545  S
C26          C27   1.459   1_545  A
C27         C274   1.520       .  S
C27          C28   1.402   1_565  A
C28          C29   1.397       .  A
C28          H33   1.085       .  S
C29          C30   1.413       .  A
C30          C31   1.508       .  S
C31          H36   1.109       .  S
C31          H37   1.110       .  S
C31         H515   1.111       .  S
H32         C505   1.066   1_455  S
C34         C267   1.520       .  S
C34          H38   1.093       .  S
C34          H39   1.111       .  S
C34          H40   1.110       .  S
H35         C511   1.111   1_455  S
C41          C42   1.430       .  A
C41          C46   1.410       .  A
C41          H48   1.052       .  S
C42          C43   1.475   1_545  A
C43         C290   1.525       .  S
C43          C44   1.410   1_565  A
C44          C45   1.388       .  A
C44          H49   1.086       .  S
C45          C46   1.401       .  A
C46          C47   1.511       .  S
C47          H51   1.111       .  S
C47          H52   1.111       .  S
C47          H53   1.109       .  S
C50         C283   1.525       .  S
C50          H54   1.085       .  S
C50          H55   1.109       .  S
C50          H56   1.113       .  S
C57          C58   1.387       .  A
C57          C62   1.400       .  A
C57          H64   1.087       .  S
C58          C59   1.397       .  A
C59          C66   1.507       .  S
C59          C60   1.408       .  A
C60          C61   1.425       .  A
C60          H65   1.063   1_554  S
C61         C743   1.599       .  S
C61          C62   1.459       .  A
C62          C63   1.520       .  S
C63          H67   1.109       .  S
C63          H68   1.111       .  S
C63          H69   1.100       .  S
C66          H70   1.111       .  S
C66          H71   1.110       .  S
C66          H72   1.110   1_554  S
C73          C74   1.388       .  A
C73          C78   1.402       .  A
C73          H80   1.085       .  S
C74          C75   1.404       .  A
C75          C82   1.509       .  S
C75          C76   1.408       .  A
C76          C77   1.425       .  A
C76         H321   1.058   1_545  S
C77          C78   1.453       .  A
C78         C559   1.504       .  S
C79         C558   1.504   1_455  S
C79          H83   1.111       .  S
C79          H84   1.099   1_545  S
C79          H85   1.095       .  S
H81         C316   1.058       .  S
C82          H86   1.109       .  S
C82          H87   1.110       .  S
C82         H328   1.111       .  S
H88         C322   1.111       .  S
C89          C90   1.400       .  A
C89          C94   1.408       .  A
C89          H96   1.085       .  S
C90          C91   1.406       .  A
C91          C98   1.509       .  S
C91          C92   1.400       .  A
C92          C93   1.426       .  A
C92          H97   1.076       .  S
C93         C504   1.591   1_545  S
C93          C94   1.439       .  A
C94         C335   1.498   1_545  S
C95         C334   1.498       .  S
C95          H99   1.107       .  S
C95         H100   1.106       .  S
C95         H101   1.093       .  S
C98         H102   1.110       .  S
C98         H103   1.110       .  S
C98         H104   1.111       .  S
C105        C106   1.426       .  A
C105        C110   1.402       .  A
C105        H112   1.060       .  S
C106        C264   1.607       .  S
C106        C107   1.463       .  A
C107        C594   1.520       .  S
C107        C108   1.408       .  A
C108        C109   1.390       .  A
C108        H113   1.087       .  S
C109        C110   1.402       .  A
C110        C111   1.511       .  S
C111        H115   1.111       .  S
C111        H116   1.111       .  S
C111        H117   1.109       .  S
C114        C587   1.520       .  S
C114        H118   1.108       .  S
C114        H119   1.081       .  S
C114        H120   1.113       .  S
Fe121       O137   2.064       .  S
Fe121       O127   2.070       .  S
Fe121       O134   2.068       .  S
Fe121       O126   2.072       .  S
Fe121       O132   1.959       .  S
Fe122       O125   2.064       .  S
Fe122       O129   2.068       .  S
Fe122       O133   2.068       .  S
Fe122       O138   2.085       .  S
Fe122       O132   1.963       .  S
Fe123       O141   2.066       .  S
Fe123       O128   2.066       .  S
Fe123       O135   2.058       .  S
Fe123       O124   2.078       .  S
Fe123       O132   1.952       .  S
O124        C131   1.275       .  A
O125        C139   1.268       .  A
O126        C131   1.271       .  A
O127        C130   1.270       .  A
O128        C140   1.271       .  A
O129        C142   1.269       .  A
C130        O135   1.265       .  A
C130        C194   1.484       .  S
C131        C149   1.502       .  S
O133        C136   1.270       .  A
O134        C136   1.270       .  A
C136        C178   1.469       .  S
O137        C142   1.271       .  A
O138        C140   1.271       .  A
C139        O141   1.271       .  A
C139        C210   1.485       .  S
C140        C165   1.495       .  S
C142        C229   1.483       .  S
C143        C626   1.625   1_565  S
C143        C162   1.651   1_665  S
C143        C901   1.599       .  S
C143        C504   1.766   1_655  S
C144        C197   1.639   1_565  S
C144        C693   1.591   1_565  S
C144        C466   1.607       .  S
C144        C503   1.766   1_556  S
C145        C146   1.420       .  A
C145        C150   1.412       .  A
C145        H632   1.066       .  S
C146        C623   1.625   1_545  S
C146        C147   1.459   1_545  A
C147        C394   1.520       .  S
C147        C148   1.402   1_565  A
C148        C149   1.397       .  A
C148        H153   1.085       .  S
C149        C150   1.413       .  A
C150        C151   1.508       .  S
C151        H635   1.111       .  S
C151        H156   1.109       .  S
C151        H157   1.110       .  S
H152        C625   1.066   1_455  S
C154        C387   1.520       .  S
C154        H158   1.093       .  S
C154        H159   1.111       .  S
C154        H160   1.110       .  S
H155        C631   1.111   1_455  S
C161        C162   1.430       .  A
C161        C166   1.410       .  A
C161        H168   1.052       .  S
C162        C163   1.475   1_545  A
C163        C410   1.525       .  S
C163        C164   1.410   1_565  A
C164        C165   1.388       .  A
C164        H169   1.086       .  S
C165        C166   1.401       .  A
C166        C167   1.511       .  S
C167        H171   1.111       .  S
C167        H172   1.111       .  S
C167        H173   1.109       .  S
C170        C403   1.525       .  S
C170        H174   1.085       .  S
C170        H175   1.109       .  S
C170        H176   1.113       .  S
C177        C178   1.387       .  A
C177        C182   1.400       .  A
C177        H184   1.087       .  S
C178        C179   1.397       .  A
C179        C186   1.507       .  S
C179        C180   1.408       .  A
C180        C181   1.425       .  A
C180        H185   1.063       .  S
C181        C863   1.599       .  S
C181        C182   1.459       .  A
C182        C183   1.520       .  S
C183        H187   1.109       .  S
C183        H188   1.111       .  S
C183        H189   1.100       .  S
C186        H190   1.111       .  S
C186        H191   1.110       .  S
C186        H192   1.110       .  S
C193        C194   1.388       .  A
C193        C198   1.402       .  A
C193        H200   1.085       .  S
C194        C195   1.404       .  A
C195        C202   1.509       .  S
C195        C196   1.408       .  A
C196        C197   1.425       .  A
C196        H441   1.058   1_545  S
C197        C198   1.453       .  A
C198        C679   1.504       .  S
C199        C678   1.504   1_455  S
C199        H203   1.111       .  S
C199        H204   1.099   1_545  S
C199        H205   1.095       .  S
H201        C436   1.058       .  S
C202        H206   1.109       .  S
C202        H207   1.110       .  S
C202        H448   1.111       .  S
H208        C442   1.111       .  S
C209        C210   1.400       .  A
C209        C214   1.408       .  A
C209        H216   1.085       .  S
C210        C211   1.406       .  A
C211        C218   1.509       .  S
C211        C212   1.400       .  A
C212        C213   1.426       .  A
C212        H217   1.076       .  S
C213        C624   1.591   1_545  S
C213        C214   1.439       .  A
C214        C455   1.498   1_545  S
C215        C454   1.498       .  S
C215        H219   1.107   1_556  S
C215        H220   1.106       .  S
C215        H221   1.093       .  S
C218        H222   1.110       .  S
C218        H223   1.110       .  S
C218        H224   1.111       .  S
C225        C226   1.426       .  A
C225        C230   1.402       .  A
C225        H232   1.060       .  S
C226        C384   1.607       .  S
C226        C227   1.463       .  A
C227        C714   1.520       .  S
C227        C228   1.408       .  A
C228        C229   1.390       .  A
C228        H233   1.087       .  S
C229        C230   1.402       .  A
C230        C231   1.511       .  S
C231        H235   1.111       .  S
C231        H236   1.111       .  S
C231        H237   1.109       .  S
C234        C707   1.520       .  S
C234        H238   1.108       .  S
C234        H239   1.081       .  S
C234        H240   1.113       .  S
Fe241       O257   2.064       .  S
Fe241       O247   2.070       .  S
Fe241       O254   2.068       .  S
Fe241       O246   2.072       .  S
Fe241       O252   1.959       .  S
Fe242       O245   2.064       .  S
Fe242       O249   2.068       .  S
Fe242       O253   2.068       .  S
Fe242       O258   2.085       .  S
Fe242       O252   1.963       .  S
Fe243       O261   2.066       .  S
Fe243       O248   2.066       .  S
Fe243       O255   2.058       .  S
Fe243       O244   2.078       .  S
Fe243       O252   1.952       .  S
O244        C251   1.275       .  A
O245        C259   1.268       .  A
O246        C251   1.271       .  A
O247        C250   1.270       .  A
O248        C260   1.271       .  A
O249        C262   1.269       .  A
C250        O255   1.265       .  A
C250        C314   1.484       .  S
C251        C269   1.502       .  S
O253        C256   1.270       .  A
O254        C256   1.270       .  A
C256        C298   1.469       .  S
O257        C262   1.271       .  A
O258        C260   1.271       .  A
C259        O261   1.271       .  A
C259        C330   1.485       .  S
C260        C285   1.495       .  S
C262        C349   1.483       .  S
C263        C746   1.625       .  S
C263        C282   1.651   1_655  S
C263        C541   1.599       .  S
C263        C864   1.766   1_654  S
C264        C317   1.639       .  S
C264        C813   1.591       .  S
C264        C863   1.766       .  S
C265        C266   1.420       .  A
C265        C270   1.412       .  A
C265        H752   1.066       .  S
C266        C743   1.625       .  S
C266        C267   1.459       .  A
C267        C268   1.402       .  A
C268        C269   1.397       .  A
C268        H273   1.085       .  S
C269        C270   1.413       .  A
C270        C271   1.508       .  S
C271        H755   1.111       .  S
C271        H276   1.109       .  S
C271        H277   1.110       .  S
H272        C745   1.066   1_455  S
C274        H278   1.093       .  S
C274        H279   1.111       .  S
C274        H280   1.110       .  S
H275        C751   1.111   1_455  S
C281        C282   1.430       .  A
C281        C286   1.410       .  A
C281        H288   1.052       .  S
C282        C283   1.475       .  A
C283        C284   1.410       .  A
C284        C285   1.388       .  A
C284        H289   1.086       .  S
C285        C286   1.401       .  A
C286        C287   1.511       .  S
C287        H291   1.111       .  S
C287        H292   1.111       .  S
C287        H293   1.109       .  S
C290        H294   1.085       .  S
C290        H295   1.109       .  S
C290        H296   1.113       .  S
C297        C298   1.387       .  A
C297        C302   1.400       .  A
C297        H304   1.087       .  S
C298        C299   1.397       .  A
C299        C306   1.507       .  S
C299        C300   1.408       .  A
C300        C301   1.425       .  A
C300        H305   1.063   1_554  S
C301        C503   1.599       .  S
C301        C302   1.459       .  A
C302        C303   1.520       .  S
C303        H307   1.109       .  S
C303        H308   1.111       .  S
C303        H309   1.100   1_565  S
C306        H310   1.111       .  S
C306        H311   1.110       .  S
C306        H312   1.110   1_554  S
C313        C314   1.388       .  A
C313        C318   1.402       .  A
C313        H320   1.085       .  S
C314        C315   1.404       .  A
C315        C322   1.509       .  S
C315        C316   1.408       .  A
C316        C317   1.425       .  A
C317        C318   1.453       .  A
C318        C799   1.504       .  S
C319        C798   1.504   1_455  S
C319        H323   1.111       .  S
C319        H324   1.099       .  S
C319        H325   1.095       .  S
C322        H326   1.109       .  S
C322        H327   1.110       .  S
C329        C330   1.400       .  A
C329        C334   1.408       .  A
C329        H336   1.085       .  S
C330        C331   1.406       .  A
C331        C338   1.509       .  S
C331        C332   1.400       .  A
C332        C333   1.426       .  A
C332        H337   1.076       .  S
C333        C744   1.591       .  S
C333        C334   1.439       .  A
C335        H339   1.107       .  S
C335        H340   1.106       .  S
C335        H341   1.093       .  S
C338        H342   1.110       .  S
C338        H343   1.110       .  S
C338        H344   1.111       .  S
C345        C346   1.426       .  A
C345        C350   1.402       .  A
C345        H352   1.060       .  S
C346        C347   1.463       .  A
C347        C834   1.520       .  S
C347        C348   1.408       .  A
C348        C349   1.390       .  A
C348        H353   1.087       .  S
C349        C350   1.402       .  A
C350        C351   1.511       .  S
C351        H355   1.111       .  S
C351        H356   1.111       .  S
C351        H357   1.109       .  S
C354        C827   1.520       .  S
C354        H358   1.108       .  S
C354        H359   1.081       .  S
C354        H360   1.113       .  S
Fe361       O377   2.064       .  S
Fe361       O367   2.070       .  S
Fe361       O374   2.068       .  S
Fe361       O366   2.072       .  S
Fe361       O372   1.959       .  S
Fe362       O365   2.064       .  S
Fe362       O369   2.068       .  S
Fe362       O373   2.068       .  S
Fe362       O378   2.085       .  S
Fe362       O372   1.963       .  S
Fe363       O381   2.066       .  S
Fe363       O368   2.066       .  S
Fe363       O375   2.058       .  S
Fe363       O364   2.078       .  S
Fe363       O372   1.952       .  S
O364        C371   1.275       .  A
O365        C379   1.268       .  A
O366        C371   1.271       .  A
O367        C370   1.270       .  A
O368        C380   1.271       .  A
O369        C382   1.269       .  A
C370        O375   1.265       .  A
C370        C434   1.484       .  S
C371        C389   1.502       .  S
O373        C376   1.270       .  A
O374        C376   1.270       .  A
C376        C418   1.469       .  S
O377        C382   1.271       .  A
O378        C380   1.271       .  A
C379        O381   1.271       .  A
C379        C450   1.485       .  S
C380        C405   1.495       .  S
C382        C469   1.483       .  S
C383        C866   1.625       .  S
C383        C402   1.651   1_655  S
C383        C661   1.599       .  S
C383        C744   1.766   1_655  S
C384        C437   1.639       .  S
C384        C933   1.591       .  S
C384        C743   1.766   1_556  S
C385        C386   1.420       .  A
C385        C390   1.412       .  A
C385        H872   1.066       .  S
C386        C863   1.625       .  S
C386        C387   1.459       .  A
C387        C388   1.402       .  A
C388        C389   1.397       .  A
C388        H393   1.085       .  S
C389        C390   1.413       .  A
C390        C391   1.508       .  S
C391        H875   1.111       .  S
C391        H396   1.109       .  S
C391        H397   1.110       .  S
H392        C865   1.066   1_455  S
C394        H398   1.093       .  S
C394        H399   1.111       .  S
C394        H400   1.110       .  S
H395        C871   1.111   1_455  S
C401        C402   1.430       .  A
C401        C406   1.410       .  A
C401        H408   1.052       .  S
C402        C403   1.475       .  A
C403        C404   1.410       .  A
C404        C405   1.388       .  A
C404        H409   1.086       .  S
C405        C406   1.401       .  A
C406        C407   1.511       .  S
C407        H411   1.111       .  S
C407        H412   1.111       .  S
C407        H413   1.109       .  S
C410        H414   1.085       .  S
C410        H415   1.109       .  S
C410        H416   1.113       .  S
C417        C418   1.387       .  A
C417        C422   1.400       .  A
C417        H424   1.087       .  S
C418        C419   1.397       .  A
C419        C426   1.507       .  S
C419        C420   1.408       .  A
C420        C421   1.425       .  A
C420        H425   1.063       .  S
C421        C623   1.599       .  S
C421        C422   1.459       .  A
C422        C423   1.520       .  S
C423        H427   1.109       .  S
C423        H428   1.111       .  S
C423        H429   1.100   1_565  S
C426        H430   1.111       .  S
C426        H431   1.110       .  S
C426        H432   1.110       .  S
C433        C434   1.388       .  A
C433        C438   1.402       .  A
C433        H440   1.085       .  S
C434        C435   1.404       .  A
C435        C442   1.509       .  S
C435        C436   1.408       .  A
C436        C437   1.425       .  A
C437        C438   1.453       .  A
C438        C919   1.504       .  S
C439        C918   1.504   1_455  S
C439        H443   1.111       .  S
C439        H444   1.099       .  S
C439        H445   1.095       .  S
C442        H446   1.109       .  S
C442        H447   1.110       .  S
C449        C450   1.400       .  A
C449        C454   1.408       .  A
C449        H456   1.085       .  S
C450        C451   1.406       .  A
C451        C458   1.509       .  S
C451        C452   1.400       .  A
C452        C453   1.426       .  A
C452        H457   1.076       .  S
C453        C864   1.591       .  S
C453        C454   1.439       .  A
C455        H459   1.107   1_556  S
C455        H460   1.106       .  S
C455        H461   1.093       .  S
C458        H462   1.110       .  S
C458        H463   1.110       .  S
C458        H464   1.111       .  S
C465        C466   1.426       .  A
C465        C470   1.402       .  A
C465        H472   1.060       .  S
C466        C467   1.463       .  A
C467        C954   1.520       .  S
C467        C468   1.408       .  A
C468        C469   1.390       .  A
C468        H473   1.087       .  S
C469        C470   1.402       .  A
C470        C471   1.511       .  S
C471        H475   1.111       .  S
C471        H476   1.111       .  S
C471        H477   1.109       .  S
C474        C947   1.520       .  S
C474        H478   1.108       .  S
C474        H479   1.081       .  S
C474        H480   1.113       .  S
Fe481       O497   2.064       .  S
Fe481       O487   2.070       .  S
Fe481       O494   2.068       .  S
Fe481       O486   2.072       .  S
Fe481       O492   1.959       .  S
Fe482       O485   2.064       .  S
Fe482       O489   2.068       .  S
Fe482       O493   2.068       .  S
Fe482       O498   2.085       .  S
Fe482       O492   1.963       .  S
Fe483       O501   2.066       .  S
Fe483       O488   2.066       .  S
Fe483       O495   2.058       .  S
Fe483       O484   2.078       .  S
Fe483       O492   1.952       .  S
O484        C491   1.275       .  A
O485        C499   1.268       .  A
O486        C491   1.271       .  A
O487        C490   1.270       .  A
O488        C500   1.271       .  A
O489        C502   1.269       .  A
C490        O495   1.265       .  A
C490        C554   1.484       .  S
C491        C509   1.502       .  S
O493        C496   1.270       .  A
O494        C496   1.270       .  A
C496        C538   1.469       .  S
O497        C502   1.271       .  A
O498        C500   1.271       .  A
C499        O501   1.271       .  A
C499        C570   1.485       .  S
C500        C525   1.495       .  S
C502        C589   1.483       .  S
C503        C522   1.651   1_565  S
C504        C557   1.639   1_465  S
C504        C826   1.607   1_455  S
C505        C506   1.420       .  A
C505        C510   1.412       .  A
C506        C507   1.459   1_545  A
C507        C754   1.520       .  S
C507        C508   1.402   1_565  A
C508        C509   1.397       .  A
C508        H513   1.085       .  S
C509        C510   1.413       .  A
C510        C511   1.508       .  S
C511        H516   1.109   1_655  S
C511        H517   1.110       .  S
C514        C747   1.520       .  S
C514        H518   1.093       .  S
C514        H519   1.111       .  S
C514        H520   1.110       .  S
C521        C522   1.430       .  A
C521        C526   1.410       .  A
C521        H528   1.052       .  S
C522        C523   1.475   1_545  A
C523        C770   1.525       .  S
C523        C524   1.410   1_565  A
C524        C525   1.388       .  A
C524        H529   1.086       .  S
C525        C526   1.401       .  A
C526        C527   1.511       .  S
C527        H531   1.111       .  S
C527        H532   1.111       .  S
C527        H533   1.109       .  S
C530        C763   1.525       .  S
C530        H534   1.085       .  S
C530        H535   1.109       .  S
C530        H536   1.113       .  S
C537        C538   1.387       .  A
C537        C542   1.400       .  A
C537        H544   1.087       .  S
C538        C539   1.397       .  A
C539        C546   1.507       .  S
C539        C540   1.408       .  A
C540        C541   1.425       .  A
C540        H545   1.063   1_554  S
C541        C542   1.459       .  A
C542        C543   1.520       .  S
C543        H547   1.109   1_655  S
C543        H548   1.111       .  S
C543        H549   1.100       .  S
C546        H550   1.111       .  S
C546        H551   1.110       .  S
C546        H552   1.110   1_554  S
C553        C554   1.388       .  A
C553        C558   1.402       .  A
C553        H560   1.085       .  S
C554        C555   1.404       .  A
C555        C562   1.509       .  S
C555        C556   1.408       .  A
C556        C557   1.425       .  A
C556        H801   1.058   1_545  S
C557        C558   1.453       .  A
C559        H563   1.111       .  S
C559        H564   1.099   1_545  S
C559        H565   1.095       .  S
H561        C796   1.058       .  S
C562        H566   1.109       .  S
C562        H567   1.110       .  S
C562        H808   1.111       .  S
H568        C802   1.111       .  S
C569        C570   1.400       .  A
C569        C574   1.408       .  A
C569        H576   1.085       .  S
C570        C571   1.406       .  A
C571        C578   1.509       .  S
C571        C572   1.400       .  A
C572        C573   1.426       .  A
C572        H577   1.076       .  S
C573        C574   1.439       .  A
C574        C815   1.498   1_545  S
C575        C814   1.498       .  S
C575        H579   1.107       .  S
C575        H580   1.106       .  S
C575        H581   1.093       .  S
C578        H582   1.110       .  S
C578        H583   1.110       .  S
C578        H584   1.111       .  S
C585        C586   1.426       .  A
C585        C590   1.402       .  A
C585        H592   1.060       .  S
C586        C744   1.607   1_655  S
C586        C587   1.463   1_655  A
C587        C588   1.408   1_455  A
C588        C589   1.390       .  A
C588        H593   1.087   1_655  S
C589        C590   1.402       .  A
C590        C591   1.511       .  S
C591        H595   1.111       .  S
C591        H596   1.111       .  S
C591        H597   1.109       .  S
C594        H598   1.108       .  S
C594        H599   1.081       .  S
C594        H600   1.113       .  S
Fe601       O617   2.064       .  S
Fe601       O607   2.070       .  S
Fe601       O614   2.068       .  S
Fe601       O606   2.072       .  S
Fe601       O612   1.959       .  S
Fe602       O605   2.064       .  S
Fe602       O609   2.068       .  S
Fe602       O613   2.068       .  S
Fe602       O618   2.085       .  S
Fe602       O612   1.963       .  S
Fe603       O621   2.066       .  S
Fe603       O608   2.066       .  S
Fe603       O615   2.058       .  S
Fe603       O604   2.078       .  S
Fe603       O612   1.952       .  S
O604        C611   1.275       .  A
O605        C619   1.268       .  A
O606        C611   1.271       .  A
O607        C610   1.270       .  A
O608        C620   1.271       .  A
O609        C622   1.269       .  A
C610        O615   1.265       .  A
C610        C674   1.484       .  S
C611        C629   1.502       .  S
O613        C616   1.270       .  A
O614        C616   1.270       .  A
C616        C658   1.469       .  S
O617        C622   1.271       .  A
O618        C620   1.271       .  A
C619        O621   1.271       .  A
C619        C690   1.485       .  S
C620        C645   1.495       .  S
C622        C709   1.483       .  S
C623        C642   1.651   1_565  S
C624        C677   1.639   1_465  S
C624        C946   1.607   1_455  S
C625        C626   1.420       .  A
C625        C630   1.412       .  A
C626        C627   1.459   1_545  A
C627        C874   1.520       .  S
C627        C628   1.402   1_565  A
C628        C629   1.397       .  A
C628        H633   1.085       .  S
C629        C630   1.413       .  A
C630        C631   1.508       .  S
C631        H636   1.109   1_655  S
C631        H637   1.110       .  S
C634        C867   1.520       .  S
C634        H638   1.093       .  S
C634        H639   1.111       .  S
C634        H640   1.110       .  S
C641        C642   1.430       .  A
C641        C646   1.410       .  A
C641        H648   1.052       .  S
C642        C643   1.475   1_545  A
C643        C890   1.525       .  S
C643        C644   1.410   1_565  A
C644        C645   1.388       .  A
C644        H649   1.086       .  S
C645        C646   1.401       .  A
C646        C647   1.511       .  S
C647        H651   1.111       .  S
C647        H652   1.111       .  S
C647        H653   1.109       .  S
C650        C883   1.525       .  S
C650        H654   1.085       .  S
C650        H655   1.109       .  S
C650        H656   1.113       .  S
C657        C658   1.387       .  A
C657        C662   1.400       .  A
C657        H664   1.087       .  S
C658        C659   1.397       .  A
C659        C666   1.507       .  S
C659        C660   1.408       .  A
C660        C661   1.425       .  A
C660        H665   1.063       .  S
C661        C662   1.459       .  A
C662        C663   1.520       .  S
C663        H667   1.109   1_655  S
C663        H668   1.111       .  S
C663        H669   1.100       .  S
C666        H670   1.111       .  S
C666        H671   1.110       .  S
C666        H672   1.110       .  S
C673        C674   1.388       .  A
C673        C678   1.402       .  A
C673        H680   1.085       .  S
C674        C675   1.404       .  A
C675        C682   1.509       .  S
C675        C676   1.408       .  A
C676        C677   1.425       .  A
C676        H921   1.058   1_545  S
C677        C678   1.453       .  A
C679        H683   1.111       .  S
C679        H684   1.099   1_545  S
C679        H685   1.095       .  S
H681        C916   1.058       .  S
C682        H686   1.109       .  S
C682        H687   1.110       .  S
C682        H928   1.111       .  S
H688        C922   1.111       .  S
C689        C690   1.400       .  A
C689        C694   1.408       .  A
C689        H696   1.085       .  S
C690        C691   1.406       .  A
C691        C698   1.509       .  S
C691        C692   1.400       .  A
C692        C693   1.426       .  A
C692        H697   1.076       .  S
C693        C694   1.439       .  A
C694        C935   1.498   1_545  S
C695        C934   1.498       .  S
C695        H699   1.107   1_556  S
C695        H700   1.106       .  S
C695        H701   1.093       .  S
C698        H702   1.110       .  S
C698        H703   1.110       .  S
C698        H704   1.111       .  S
C705        C706   1.426       .  A
C705        C710   1.402       .  A
C705        H712   1.060       .  S
C706        C864   1.607   1_655  S
C706        C707   1.463   1_655  A
C707        C708   1.408   1_455  A
C708        C709   1.390       .  A
C708        H713   1.087   1_655  S
C709        C710   1.402       .  A
C710        C711   1.511       .  S
C711        H715   1.111       .  S
C711        H716   1.111       .  S
C711        H717   1.109       .  S
C714        H718   1.108       .  S
C714        H719   1.081       .  S
C714        H720   1.113       .  S
Fe721       O737   2.064       .  S
Fe721       O727   2.070       .  S
Fe721       O734   2.068       .  S
Fe721       O726   2.072       .  S
Fe721       O732   1.959       .  S
Fe722       O725   2.064       .  S
Fe722       O729   2.068       .  S
Fe722       O733   2.068       .  S
Fe722       O738   2.085       .  S
Fe722       O732   1.963       .  S
Fe723       O741   2.066       .  S
Fe723       O728   2.066       .  S
Fe723       O735   2.058       .  S
Fe723       O724   2.078       .  S
Fe723       O732   1.952       .  S
O724        C731   1.275       .  A
O725        C739   1.268       .  A
O726        C731   1.271       .  A
O727        C730   1.270       .  A
O728        C740   1.271       .  A
O729        C742   1.269       .  A
C730        O735   1.265       .  A
C730        C794   1.484       .  S
C731        C749   1.502       .  S
O733        C736   1.270       .  A
O734        C736   1.270       .  A
C736        C778   1.469       .  S
O737        C742   1.271       .  A
O738        C740   1.271       .  A
C739        O741   1.271       .  A
C739        C810   1.485       .  S
C740        C765   1.495       .  S
C742        C829   1.483       .  S
C743        C762   1.651       .  S
C744        C797   1.639   1_455  S
C745        C746   1.420       .  A
C745        C750   1.412       .  A
C746        C747   1.459       .  A
C747        C748   1.402       .  A
C748        C749   1.397       .  A
C748        H753   1.085       .  S
C749        C750   1.413       .  A
C750        C751   1.508       .  S
C751        H756   1.109   1_655  S
C751        H757   1.110       .  S
C754        H758   1.093       .  S
C754        H759   1.111       .  S
C754        H760   1.110       .  S
C761        C762   1.430       .  A
C761        C766   1.410       .  A
C761        H768   1.052       .  S
C762        C763   1.475       .  A
C763        C764   1.410       .  A
C764        C765   1.388       .  A
C764        H769   1.086       .  S
C765        C766   1.401       .  A
C766        C767   1.511       .  S
C767        H771   1.111       .  S
C767        H772   1.111       .  S
C767        H773   1.109       .  S
C770        H774   1.085       .  S
C770        H775   1.109       .  S
C770        H776   1.113       .  S
C777        C778   1.387       .  A
C777        C782   1.400       .  A
C777        H784   1.087       .  S
C778        C779   1.397       .  A
C779        C786   1.507       .  S
C779        C780   1.408       .  A
C780        C781   1.425       .  A
C780        H785   1.063   1_554  S
C781        C782   1.459       .  A
C782        C783   1.520       .  S
C783        H787   1.109   1_655  S
C783        H788   1.111       .  S
C783        H789   1.100   1_565  S
C786        H790   1.111       .  S
C786        H791   1.110       .  S
C786        H792   1.110   1_554  S
C793        C794   1.388       .  A
C793        C798   1.402       .  A
C793        H800   1.085       .  S
C794        C795   1.404       .  A
C795        C802   1.509       .  S
C795        C796   1.408       .  A
C796        C797   1.425       .  A
C797        C798   1.453       .  A
C799        H803   1.111       .  S
C799        H804   1.099       .  S
C799        H805   1.095       .  S
C802        H806   1.109       .  S
C802        H807   1.110       .  S
C809        C810   1.400       .  A
C809        C814   1.408       .  A
C809        H816   1.085       .  S
C810        C811   1.406       .  A
C811        C818   1.509       .  S
C811        C812   1.400       .  A
C812        C813   1.426       .  A
C812        H817   1.076       .  S
C813        C814   1.439       .  A
C815        H819   1.107       .  S
C815        H820   1.106       .  S
C815        H821   1.093       .  S
C818        H822   1.110       .  S
C818        H823   1.110       .  S
C818        H824   1.111       .  S
C825        C826   1.426       .  A
C825        C830   1.402       .  A
C825        H832   1.060       .  S
C826        C827   1.463   1_655  A
C827        C828   1.408   1_455  A
C828        C829   1.390       .  A
C828        H833   1.087   1_655  S
C829        C830   1.402       .  A
C830        C831   1.511       .  S
C831        H835   1.111       .  S
C831        H836   1.111       .  S
C831        H837   1.109       .  S
C834        H838   1.108       .  S
C834        H839   1.081       .  S
C834        H840   1.113       .  S
Fe841       O857   2.064       .  S
Fe841       O847   2.070       .  S
Fe841       O854   2.068       .  S
Fe841       O846   2.072       .  S
Fe841       O852   1.959       .  S
Fe842       O845   2.064       .  S
Fe842       O849   2.068       .  S
Fe842       O853   2.068       .  S
Fe842       O858   2.085       .  S
Fe842       O852   1.963       .  S
Fe843       O861   2.066       .  S
Fe843       O848   2.066       .  S
Fe843       O855   2.058       .  S
Fe843       O844   2.078       .  S
Fe843       O852   1.952       .  S
O844        C851   1.275       .  A
O845        C859   1.268       .  A
O846        C851   1.271       .  A
O847        C850   1.270       .  A
O848        C860   1.271       .  A
O849        C862   1.269       .  A
C850        O855   1.265       .  A
C850        C914   1.484       .  S
C851        C869   1.502       .  S
O853        C856   1.270       .  A
O854        C856   1.270       .  A
C856        C898   1.469       .  S
O857        C862   1.271       .  A
O858        C860   1.271       .  A
C859        O861   1.271       .  A
C859        C930   1.485       .  S
C860        C885   1.495       .  S
C862        C949   1.483       .  S
C863        C882   1.651       .  S
C864        C917   1.639   1_455  S
C865        C866   1.420       .  A
C865        C870   1.412       .  A
C866        C867   1.459       .  A
C867        C868   1.402       .  A
C868        C869   1.397       .  A
C868        H873   1.085       .  S
C869        C870   1.413       .  A
C870        C871   1.508       .  S
C871        H876   1.109   1_655  S
C871        H877   1.110       .  S
C874        H878   1.093       .  S
C874        H879   1.111       .  S
C874        H880   1.110       .  S
C881        C882   1.430       .  A
C881        C886   1.410       .  A
C881        H888   1.052       .  S
C882        C883   1.475       .  A
C883        C884   1.410       .  A
C884        C885   1.388       .  A
C884        H889   1.086       .  S
C885        C886   1.401       .  A
C886        C887   1.511       .  S
C887        H891   1.111       .  S
C887        H892   1.111       .  S
C887        H893   1.109       .  S
C890        H894   1.085       .  S
C890        H895   1.109       .  S
C890        H896   1.113       .  S
C897        C898   1.387       .  A
C897        C902   1.400       .  A
C897        H904   1.087       .  S
C898        C899   1.397       .  A
C899        C906   1.507       .  S
C899        C900   1.408       .  A
C900        C901   1.425       .  A
C900        H905   1.063       .  S
C901        C902   1.459       .  A
C902        C903   1.520       .  S
C903        H907   1.109   1_655  S
C903        H908   1.111       .  S
C903        H909   1.100   1_565  S
C906        H910   1.111       .  S
C906        H911   1.110       .  S
C906        H912   1.110       .  S
C913        C914   1.388       .  A
C913        C918   1.402       .  A
C913        H920   1.085       .  S
C914        C915   1.404       .  A
C915        C922   1.509       .  S
C915        C916   1.408       .  A
C916        C917   1.425       .  A
C917        C918   1.453       .  A
C919        H923   1.111       .  S
C919        H924   1.099       .  S
C919        H925   1.095       .  S
C922        H926   1.109       .  S
C922        H927   1.110       .  S
C929        C930   1.400       .  A
C929        C934   1.408       .  A
C929        H936   1.085       .  S
C930        C931   1.406       .  A
C931        C938   1.509       .  S
C931        C932   1.400       .  A
C932        C933   1.426       .  A
C932        H937   1.076       .  S
C933        C934   1.439       .  A
C935        H939   1.107   1_556  S
C935        H940   1.106       .  S
C935        H941   1.093       .  S
C938        H942   1.110       .  S
C938        H943   1.110       .  S
C938        H944   1.111       .  S
C945        C946   1.426       .  A
C945        C950   1.402       .  A
C945        H952   1.060       .  S
C946        C947   1.463   1_655  A
C947        C948   1.408   1_455  A
C948        C949   1.390       .  A
C948        H953   1.087   1_655  S
C949        C950   1.402       .  A
C950        C951   1.511       .  S
C951        H955   1.111       .  S
C951        H956   1.111       .  S
C951        H957   1.109       .  S
C954        H958   1.108       .  S
C954        H959   1.081       .  S
C954        H960   1.113       .  S
