geometry optimzed in LAMMPS
_audit_creation_date              2020-12-01 
_audit_creation_method            'lammps2cif' 
_symmetry_space_group_name_H-M    'P1' 
_symmetry_Int_Tables_number       1 
_symmetry_cell_setting            triclinic 
loop_ 
_symmetry_equiv_pos_as_xyz 
  x,y,z 
_cell_length_a                    88.56263214 
_cell_length_b                    88.78897771238411 
_cell_length_c                    88.83807393201555 
_cell_angle_alpha                 89.97326467695572 
_cell_angle_beta                  89.86612522569219 
_cell_angle_gamma                 90.00898764248421 
loop_ 
_atom_site_label 
_atom_site_type_symbol 
_atom_site_fract_x 
_atom_site_fract_y 
_atom_site_fract_z 
_atom_site_charge 
N1          N  0.93899833  0.89574698  0.39145180    -0.27500
N2          N  0.94160059  0.90970165  0.38691291    -0.35400
C3          C  0.95649024  0.91161439  0.38470281     0.00800
C4          C  0.96386873  0.89832575  0.38813294     0.06900
C5          C  0.95239646  0.88847948  0.39246866    -0.06200
H6          H  0.96164485  0.92216862  0.38142052     0.07500
H7          H  0.95370636  0.87691651  0.39607831     0.08700
Cu8        Cu  0.92530017  0.92639318  0.38539877     0.44200
Cu9        Cu  0.91691942  0.88787879  0.39577444     0.42000
Cu10       Cu  0.88776803  0.91800289  0.39674537     0.43900
N11         N  0.90888388  0.94287384  0.38777195    -0.34900
N12         N  0.89509075  0.94007953  0.39273028    -0.29100
C13         C  0.88767193  0.95329178  0.39427982    -0.05200
C14         C  0.89726240  0.96489925  0.38986730     0.07000
C15         C  0.91057609  0.95779002  0.38581339     0.00800
H16         H  0.87617697  0.95437504  0.39827929     0.08400
H17         H  0.92097040  0.96312933  0.38225071     0.07500
N18         N  0.88321634  0.89486346  0.39799354    -0.36300
N19         N  0.89347133  0.88399873  0.39771409    -0.28500
C20         C  0.88625662  0.87057121  0.39771848    -0.03800
C21         C  0.87072782  0.87303934  0.39787641     0.04900
C22         C  0.86935802  0.88862421  0.39810874     0.02900
H23         H  0.89191136  0.85980384  0.39692100     0.08000
H24         H  0.85900643  0.89507620  0.39796723     0.06900
N25         N  0.89320129  0.12421115  0.44528247    -0.27500
N26         N  0.88994397  0.11035537  0.44971946    -0.35400
C27         C  0.88926525  0.10996067  0.46485276     0.00800
C28         C  0.89234361  0.12420488  0.47043078     0.06900
C29         C  0.89487492  0.13294808  0.45763516    -0.06200
H30         H  0.88700963  0.09989212  0.47134111     0.07500
H31         H  0.89753835  0.14483365  0.45732714     0.08700
Cu32       Cu  0.88718745  0.09214025  0.43523806     0.44200
Cu33       Cu  0.89457546  0.13030774  0.42235052     0.42000
Cu34       Cu  0.89089698  0.09868990  0.39564922     0.43900
N35         N  0.88653645  0.07487650  0.41941163    -0.34900
N36         N  0.88832411  0.07711256  0.40480949    -0.29100
C37         C  0.88805809  0.06365722  0.39774247    -0.05200
C38         C  0.88586303  0.05239462  0.40841763     0.07000
C39         C  0.88495163  0.06002694  0.42201776     0.00800
H40         H  0.88929345  0.06220072  0.38571501     0.08400
H41         H  0.88363488  0.05512942  0.43309368     0.07500
N42         N  0.89235922  0.12136735  0.38929786    -0.36300
N43         N  0.89376396  0.13281919  0.39873515    -0.28500
C44         C  0.89377984  0.14576009  0.39069992    -0.03800
C45         C  0.89224971  0.14236984  0.37546191     0.04900
C46         C  0.89141329  0.12672945  0.37514900     0.02900
H47         H  0.89437067  0.15686100  0.39566930     0.08000
H48         H  0.88999224  0.11964314  0.36536503     0.06900
N49         N  0.07719306  0.89121743  0.40229441    -0.27500
N50         N  0.07449186  0.88753022  0.41647238    -0.35400
C51         C  0.05961565  0.88555722  0.41854639     0.00800
C52         C  0.05222470  0.88806190  0.40507688     0.06900
C53         C  0.06378343  0.89173272  0.39497562    -0.06200
H54         H  0.05455813  0.88284644  0.42930050     0.07500
H55         H  0.06253548  0.89446320  0.38317609     0.08700
Cu56       Cu  0.09046393  0.88619556  0.43327816     0.44200
Cu57       Cu  0.09951453  0.89509628  0.39436632     0.42000
Cu58       Cu  0.12761487  0.89745741  0.42557795     0.43900
N59         N  0.10605929  0.88912848  0.45021214    -0.34900
N60         N  0.11986167  0.89412344  0.44766842    -0.29100
C61         C  0.12668090  0.89646495  0.46105194    -0.05200
C62         C  0.11662964  0.89261466  0.47253222     0.07000
C63         C  0.10370726  0.88798863  0.46511163     0.00800
H64         H  0.13800932  0.90082556  0.46232788     0.08400
H65         H  0.09305258  0.88477158  0.47014982     0.07500
N66         N  0.13295958  0.89784909  0.40253069    -0.36300
N67         N  0.12323626  0.89713356  0.39121494    -0.28500
C68         C  0.13117472  0.89662814  0.37813592    -0.03800
C69         C  0.14656690  0.89686048  0.38138609     0.04900
C70         C  0.14710386  0.89765716  0.39696535     0.02900
H71         H  0.12615457  0.89525741  0.36713279     0.08000
H72         H  0.15715429  0.89754863  0.40386399     0.06900
N73         N  0.11163076  0.89408484  0.58752766    -0.27500
N74         N  0.11579721  0.90803131  0.58449988    -0.35400
C75         C  0.11629748  0.91001967  0.56951274     0.00800
C76         C  0.11220481  0.89665534  0.56260139     0.06900
C77         C  0.10922534  0.88678872  0.57442483    -0.06200
H78         H  0.11934708  0.92049352  0.56407477     0.07500
H79         H  0.10599607  0.87507133  0.57356446     0.08700
Cu80       Cu  0.12029900  0.92366219  0.60107258     0.44200
Cu81       Cu  0.11082792  0.88622699  0.60971004     0.42000
Cu82       Cu  0.11713260  0.91379610  0.64064081     0.43900
N83         N  0.12134281  0.93918939  0.61831015    -0.34900
N84         N  0.11957486  0.93609809  0.63276918    -0.29100
C85         C  0.11937109  0.94925653  0.64044505    -0.05200
C86         C  0.12122700  0.96109332  0.63026672     0.07000
C87         C  0.12244632  0.95413672  0.61640074     0.00800
H88         H  0.11777838  0.95015330  0.65248554     0.08400
H89         H  0.12329815  0.95955386  0.60552296     0.07500
N90         N  0.11596951  0.89022841  0.64359926    -0.36300
N91         N  0.11373521  0.88062284  0.63240403    -0.28500
C92         C  0.11507707  0.86648628  0.63767027    -0.03800
C93         C  0.11830311  0.86697504  0.65292553     0.04900
C94         C  0.11867575  0.88227116  0.65631096     0.02900
H95         H  0.11433795  0.85653600  0.63068877     0.08000
H96         H  0.12164834  0.88725005  0.66701256     0.06900
N97         N  0.89143501  0.13185481  0.58557635    -0.27500
N98         N  0.90547353  0.13546882  0.58186795    -0.35400
C99         C  0.90664605  0.13644441  0.56679082     0.00800
C100        C  0.89280526  0.13308312  0.56043794     0.06900
C101        C  0.88341265  0.13019521  0.57273592    -0.06200
H102        H  0.91712566  0.13846961  0.56084078     0.07500
H103        H  0.87169890  0.12676858  0.57234883     0.08700
Cu104      Cu  0.92351498  0.13651125  0.59676125     0.44200
Cu105      Cu  0.88421376  0.12864207  0.60816358     0.42000
Cu106      Cu  0.91576538  0.12705246  0.63479427     0.43900
N107        N  0.94061225  0.13343289  0.61245786    -0.34900
N108        N  0.93780952  0.12955854  0.62654035    -0.29100
C109        C  0.95105239  0.12734267  0.63367087    -0.05200
C110        C  0.96283883  0.12996687  0.62359005     0.07000
C111        C  0.95566607  0.13383307  0.61024348     0.00800
H112        H  0.95198655  0.12389683  0.64530782     0.08400
H113        H  0.96095558  0.13619580  0.59951499     0.07500
N114        N  0.89298150  0.12573152  0.64111631    -0.36300
N115        N  0.88136100  0.12632654  0.63178757    -0.28500
C116        C  0.86846405  0.12565287  0.64003895    -0.03800
C117        C  0.87212079  0.12463581  0.65530379     0.04900
C118        C  0.88783276  0.12467936  0.65533597     0.02900
H119        H  0.85724228  0.12622827  0.63529777     0.08000
H120        H  0.89517160  0.12413106  0.66502048     0.06900
N121        N  0.11996449  0.07601928  0.62556535    -0.27500
N122        N  0.10558127  0.07314993  0.62840075    -0.35400
C123        C  0.10365512  0.05813892  0.62960829     0.00800
C124        C  0.11743966  0.05116152  0.62721941     0.06900
C125        C  0.12750805  0.06285673  0.62459238    -0.06200
H126        H  0.09289336  0.05266726  0.63146608     0.07500
H127        H  0.13944193  0.06185816  0.62216642     0.08700
Cu128      Cu  0.08903702  0.08983459  0.62892325     0.44200
Cu129      Cu  0.12842703  0.09793975  0.62345661     0.42000
Cu130      Cu  0.10090503  0.12838424  0.62052691     0.43900
N131        N  0.07409207  0.10772988  0.62596981    -0.34900
N132        N  0.07822459  0.12154097  0.62212691    -0.29100
C133        C  0.06568060  0.12992970  0.62004562    -0.05200
C134        C  0.05308446  0.12104893  0.62296036     0.07000
C135        C  0.05891440  0.10706989  0.62669693     0.00800
H136        H  0.06571812  0.14167669  0.61680631     0.08400
H137        H  0.05255703  0.09699009  0.62930056     0.07500
N138        N  0.12433995  0.13194759  0.62181162    -0.36300
N139        N  0.13419154  0.12081859  0.62313342    -0.28500
C140        C  0.14808157  0.12669014  0.62501727    -0.03800
C141        C  0.14710857  0.14231027  0.62482311     0.04900
C142        C  0.13182107  0.14519299  0.62268890     0.02900
H143        H  0.15814655  0.12000596  0.62671655     0.08000
H144        H  0.12642676  0.15612111  0.62252532     0.06900
N145        N  0.39139013  0.61743950  0.59558769    -0.27500
N146        N  0.38831040  0.60332261  0.59195453    -0.35400
C147        C  0.38792950  0.60201093  0.57685671     0.00800
C148        C  0.39110931  0.61590735  0.57052174     0.06900
C149        C  0.39329928  0.62542107  0.58277307    -0.06200
H150        H  0.38626058  0.59150994  0.57091769     0.07500
H151        H  0.39626341  0.63723597  0.58238385     0.08700
Cu152      Cu  0.38675560  0.58593229  0.60753464     0.44200
Cu153      Cu  0.39320157  0.62476007  0.61807464     0.42000
Cu154      Cu  0.39516936  0.59444120  0.64624540     0.43900
N155        N  0.38899026  0.56949113  0.62401640    -0.34900
N156        N  0.39280206  0.57236573  0.63810669    -0.29100
C157        C  0.39452100  0.55915123  0.64544923    -0.05200
C158        C  0.39144866  0.54743090  0.63551521     0.07000
C159        C  0.38798322  0.55450282  0.62206688     0.00800
H160        H  0.39778078  0.55814512  0.65713241     0.08400
H161        H  0.38550480  0.54912957  0.61142627     0.07500
N162        N  0.39477111  0.61750270  0.65152687    -0.36300
N163        N  0.39394950  0.62849911  0.64148820    -0.28500
C164        C  0.39294217  0.64178583  0.64886212    -0.03800
C165        C  0.39306398  0.63911440  0.66431411     0.04900
C166        C  0.39429494  0.62352322  0.66544054     0.02900
H167        H  0.39164419  0.65256768  0.64334448     0.08000
H168        H  0.39451252  0.61689758  0.67564891     0.06900
N169        N  0.62259130  0.39192233  0.58021802    -0.27500
N170        N  0.60825243  0.38883483  0.57752715    -0.35400
C171        C  0.60609969  0.38793822  0.56254887     0.00800
C172        C  0.61972377  0.39069622  0.55532541     0.06900
C173        C  0.62991815  0.39323873  0.56694769    -0.06200
H174        H  0.59529050  0.38584834  0.55730243     0.07500
H175        H  0.64182078  0.39575549  0.56584881     0.08700
Cu176      Cu  0.59215574  0.38700166  0.59448693     0.44200
Cu177      Cu  0.63118014  0.39380283  0.60212253     0.42000
Cu178      Cu  0.60397616  0.39330061  0.63336585     0.43900
N179        N  0.57727555  0.38845094  0.61255023    -0.34900
N180        N  0.58128000  0.39137153  0.62659414    -0.29100
C181        C  0.56862770  0.39298632  0.63497578    -0.05200
C182        C  0.55611267  0.39081818  0.62578016     0.07000
C183        C  0.56212696  0.38792811  0.61168053     0.00800
H184        H  0.56853821  0.39567046  0.64685182     0.08400
H185        H  0.55592774  0.38626004  0.60133504     0.07500
N186        N  0.62756743  0.39387210  0.63630474    -0.36300
N187        N  0.63727113  0.39387279  0.62493871    -0.28500
C188        C  0.65141383  0.39323502  0.63046693    -0.03800
C189        C  0.65076640  0.39288477  0.64609541     0.04900
C190        C  0.63539579  0.39337201  0.64934983     0.02900
H191        H  0.66146455  0.39280943  0.62354208     0.08000
H192        H  0.63025224  0.39274732  0.66038922     0.06900
N193        N  0.62347777  0.57476294  0.40311935    -0.27500
N194        N  0.60938286  0.57193136  0.39921480    -0.35400
C195        C  0.60736189  0.55696446  0.39815679     0.00800
C196        C  0.62080669  0.54984894  0.40168054     0.06900
C197        C  0.63079715  0.56152719  0.40486113    -0.06200
H198        H  0.59671346  0.55164245  0.39547301     0.07500
H199        H  0.64252559  0.56047740  0.40806792     0.08700
Cu200      Cu  0.59325718  0.58860382  0.39672816     0.44200
Cu201      Cu  0.63135269  0.59695047  0.40514907     0.42000
Cu202      Cu  0.60288743  0.62768382  0.40396908     0.43900
N203        N  0.57743339  0.60571059  0.39798509    -0.34900
N204        N  0.58044867  0.61987467  0.40150694    -0.29100
C205        C  0.56720427  0.62744382  0.40254379    -0.05200
C206        C  0.55545236  0.61756017  0.39921945     0.07000
C207        C  0.56245998  0.60395563  0.39640031     0.00800
H208        H  0.56619446  0.63926901  0.40529486     0.08400
H209        H  0.55700778  0.59336395  0.39381859     0.07500
N210        N  0.62654658  0.63114587  0.40377064    -0.36300
N211        N  0.63651244  0.62000920  0.40405800    -0.28500
C212        C  0.65048614  0.62579458  0.40250024    -0.03800
C213        C  0.64952884  0.64135082  0.40119455     0.04900
C214        C  0.63410824  0.64431698  0.40215052     0.02900
H215        H  0.66064553  0.61905075  0.40202609     0.08000
H216        H  0.62873398  0.65519710  0.40101613     0.06900
N217        N  0.61669722  0.43471754  0.39827289    -0.27500
N218        N  0.62162598  0.43727337  0.41205422    -0.35400
C219        C  0.62340362  0.45218099  0.41406899     0.00800
C220        C  0.61935166  0.45955585  0.40092695     0.06900
C221        C  0.61510639  0.44805217  0.39114774    -0.06200
H222        H  0.62694505  0.45727305  0.42453961     0.07500
H223        H  0.61120616  0.44926046  0.37968386     0.08700
Cu224      Cu  0.62449510  0.42036210  0.42784580     0.44200
Cu225      Cu  0.61293763  0.41280507  0.39031880     0.42000
Cu226      Cu  0.61578230  0.38161994  0.41760138     0.43900
N227        N  0.62292066  0.40297065  0.44330850    -0.34900
N228        N  0.61893333  0.38899692  0.43999925    -0.29100
C229        C  0.61735834  0.38125518  0.45302744    -0.05200
C230        C  0.62073748  0.39079553  0.46501143     0.07000
C231        C  0.62422364  0.40442080  0.45830977     0.00800
H232        H  0.61390565  0.36958917  0.45374584     0.08400
H233        H  0.62679842  0.41489506  0.46396839     0.07500
N234        N  0.61433232  0.37855834  0.39404208    -0.36300
N235        N  0.61303642  0.38991464  0.38446381    -0.28500
C236        C  0.61339847  0.38450315  0.37031923    -0.03800
C237        C  0.61514122  0.36893215  0.37071863     0.04900
C238        C  0.61559235  0.36561488  0.38607011     0.02900
H239        H  0.61297767  0.39160489  0.36044686     0.08000
H240        H  0.61742454  0.35466943  0.39108950     0.06900
N241        N  0.39641458  0.61992646  0.45521498    -0.27500
N242        N  0.41048183  0.62289282  0.45914206    -0.35400
C243        C  0.41151157  0.62316124  0.47425603     0.00800
C244        C  0.39741767  0.62009795  0.48035933     0.06900
C245        C  0.38811830  0.61804628  0.46787285    -0.06200
H246        H  0.42190568  0.62503227  0.48034356     0.07500
H247        H  0.37618062  0.61546969  0.46798428     0.08700
Cu248      Cu  0.42782865  0.62548510  0.44363787     0.44200
Cu249      Cu  0.38986950  0.61909647  0.43240871     0.42000
Cu250      Cu  0.42019820  0.62200585  0.40358307     0.43900
N251        N  0.44451723  0.62582468  0.42722257    -0.34900
N252        N  0.44216517  0.62411000  0.41262416    -0.29100
C253        C  0.45570441  0.62444385  0.40551450    -0.05200
C254        C  0.46703836  0.62664938  0.41617301     0.07000
C255        C  0.45937868  0.62741391  0.42976155     0.00800
H256        H  0.45717548  0.62339330  0.39347013     0.08400
H257        H  0.46424752  0.62877189  0.44083028     0.07500
N258        N  0.39684889  0.62166784  0.39860207    -0.36300
N259        N  0.38613060  0.62065492  0.40899135    -0.28500
C260        C  0.37255893  0.62167706  0.40220768    -0.03800
C261        C  0.37458454  0.62346560  0.38674815     0.04900
C262        C  0.39023475  0.62331774  0.38497089     0.02900
H263        H  0.36194982  0.62140427  0.40824187     0.08000
H264        H  0.39641446  0.62483983  0.37456648     0.06900
N265        N  0.44080705  0.39137740  0.63094451    -0.27500
N266        N  0.44360121  0.40562183  0.63417037    -0.35400
C267        C  0.45866142  0.40779247  0.63459630     0.00800
C268        C  0.46575734  0.39425442  0.63131239     0.06900
C269        C  0.45402537  0.38411429  0.62906035    -0.06200
H270        H  0.46402672  0.41858505  0.63640503     0.07500
H271        H  0.45501468  0.37235477  0.62603100     0.08700
Cu272      Cu  0.42644471  0.42144032  0.63589998     0.44200
Cu273      Cu  0.41888364  0.38302649  0.62860599     0.42000
Cu274      Cu  0.38751433  0.40982987  0.62671798     0.43900
N275        N  0.40829202  0.43610830  0.63413658    -0.34900
N276        N  0.39437268  0.43233766  0.63023597    -0.29100
C277        C  0.38603721  0.44506407  0.62928291    -0.05200
C278        C  0.39512591  0.45733709  0.63293480     0.07000
C279        C  0.40911664  0.45111075  0.63591405     0.00800
H280        H  0.37422692  0.44535738  0.62622333     0.08400
H281        H  0.41937651  0.45709283  0.63870816     0.07500
N282        N  0.38473214  0.38622853  0.62573806    -0.36300
N283        N  0.39621961  0.37674390  0.62675744    -0.28500
C284        C  0.39089177  0.36255498  0.62710892    -0.03800
C285        C  0.37525028  0.36288488  0.62620231     0.04900
C286        C  0.37176996  0.37815735  0.62526894     0.02900
H287        H  0.39795427  0.35269435  0.62831753     0.08000
H288        H  0.36059135  0.38306247  0.62508677     0.06900
N289        N  0.56843736  0.13399860  0.89906896    -0.27500
N290        N  0.56574730  0.13772175  0.91321282    -0.35400
C291        C  0.55084357  0.13984677  0.91515869     0.00800
C292        C  0.54359345  0.13716628  0.90162722     0.06900
C293        C  0.55514167  0.13341948  0.89164577    -0.06200
H294        H  0.54559858  0.14248711  0.92584588     0.07500
H295        H  0.55395246  0.13044559  0.87990051     0.08700
Cu296      Cu  0.58230245  0.13786514  0.92962131     0.44200
Cu297      Cu  0.59054047  0.12998538  0.89147391     0.42000
Cu298      Cu  0.62082081  0.12770239  0.92051857     0.43900
N299        N  0.59888086  0.13451980  0.94567760    -0.34900
N300        N  0.61295048  0.13047331  0.94278109    -0.29100
C301        C  0.62033111  0.12899682  0.95602871    -0.05200
C302        C  0.61039519  0.13236780  0.96778812     0.07000
C303        C  0.59692398  0.13573665  0.96061036     0.00800
H304        H  0.63208892  0.12586960  0.95700181     0.08400
H305        H  0.58628128  0.13872102  0.96578249     0.07500
N306        N  0.62462342  0.12728129  0.89705326    -0.36300
N307        N  0.61375242  0.12811262  0.88686394    -0.28500
C308        C  0.62004350  0.12841955  0.87305139    -0.03800
C309        C  0.63569198  0.12778859  0.87435690     0.04900
C310        C  0.63809008  0.12702162  0.88984385     0.02900
H311        H  0.61355466  0.12939665  0.86281312     0.08000
H312        H  0.64886190  0.12674228  0.89553892     0.06900
N313        N  0.62571563  0.93487503  0.11894412    -0.27500
N314        N  0.61168860  0.93886818  0.12220944    -0.35400
C315        C  0.61068152  0.95398665  0.12223249     0.00800
C316        C  0.62468109  0.95999266  0.11869608     0.06900
C317        C  0.63394515  0.94749594  0.11660722    -0.06200
H318        H  0.60035692  0.96016140  0.12431509     0.07500
H319        H  0.64582884  0.94758297  0.11376350     0.08700
Cu320      Cu  0.59398086  0.92384415  0.12563790     0.44200
Cu321      Cu  0.63273731  0.91220179  0.11820390     0.42000
Cu322      Cu  0.60215743  0.88446428  0.12244169     0.43900
N323        N  0.57728171  0.90737979  0.12623897    -0.34900
N324        N  0.58015070  0.89286691  0.12457895    -0.29100
C325        C  0.56693232  0.88532912  0.12401998    -0.05200
C326        C  0.55516199  0.89559028  0.12550809     0.07000
C327        C  0.56223408  0.90944864  0.12694940     0.00800
H328        H  0.56596155  0.87329422  0.12239786     0.08400
H329        H  0.55682733  0.92034835  0.12769060     0.07500
N330        N  0.62507763  0.87884793  0.12058979    -0.36300
N331        N  0.63617339  0.88871953  0.11901594    -0.28500
C332        C  0.64943049  0.88118335  0.11863211    -0.03800
C333        C  0.64664088  0.86579703  0.12006302     0.04900
C334        C  0.63099341  0.86488629  0.12125251     0.02900
H335        H  0.66033852  0.88659545  0.11779168     0.08000
H336        H  0.62428057  0.85482337  0.12271860     0.06900
N337        N  0.62996481  0.07516418  0.12039052    -0.27500
N338        N  0.63350568  0.07253893  0.10619292    -0.35400
C339        C  0.63422940  0.05754128  0.10390801     0.00800
C340        C  0.63086051  0.05026502  0.11733521     0.06900
C341        C  0.62822536  0.06187573  0.12753135    -0.06200
H342        H  0.63631755  0.05232901  0.09309872     0.07500
H343        H  0.62502736  0.06075401  0.13923722     0.08700
Cu344      Cu  0.63542085  0.08992247  0.09067250     0.44200
Cu345      Cu  0.62716868  0.09707628  0.12864821     0.42000
Cu346      Cu  0.62662560  0.12903077  0.10221693     0.43900
N347        N  0.63382737  0.10806636  0.07601274    -0.34900
N348        N  0.62978500  0.12196930  0.07964977    -0.29100
C349        C  0.62840087  0.13004318  0.06678344    -0.05200
C350        C  0.63205285  0.12081007  0.05463710     0.07000
C351        C  0.63543115  0.10704507  0.06101155     0.00800
H352        H  0.62499421  0.14173134  0.06628365     0.08400
H353        H  0.63819321  0.09675887  0.05508613     0.07500
N354        N  0.62563781  0.13145248  0.12592188    -0.36300
N355        N  0.62583910  0.11972120  0.13513124    -0.28500
C356        C  0.62601493  0.12465091  0.14943247    -0.03800
C357        C  0.62600886  0.14030124  0.14956021     0.04900
C358        C  0.62566225  0.14419884  0.13433992     0.02900
H359        H  0.62645727  0.11722567  0.15906843     0.08000
H360        H  0.62606796  0.15546741  0.12972334     0.06900
N361        N  0.38926948  0.94136642  0.89928943    -0.27500
N362        N  0.38698983  0.94503374  0.91351231    -0.35400
C363        C  0.38522583  0.96003437  0.91454324     0.00800
C364        C  0.38653575  0.96619536  0.90025553     0.06900
C365        C  0.38908540  0.95396467  0.89085726    -0.06200
H366        H  0.38386130  0.96605344  0.92504152     0.07500
H367        H  0.39100190  0.95419439  0.87883178     0.08700
Cu368      Cu  0.38798398  0.92953862  0.93091229     0.44200
Cu369      Cu  0.39339715  0.91937924  0.89252496     0.42000
Cu370      Cu  0.39727998  0.89050524  0.92166267     0.43900
N371        N  0.39142989  0.91287387  0.94686648    -0.34900
N372        N  0.39529100  0.89882107  0.94372795    -0.29100
C373        C  0.39751414  0.89140428  0.95679814    -0.05200
C374        C  0.39474563  0.90122403  0.96867580     0.07000
C375        C  0.39090778  0.91470280  0.96188636     0.00800
H376        H  0.40084667  0.87971073  0.95760056     0.08400
H377        H  0.38837445  0.92524562  0.96744518     0.07500
N378        N  0.39800178  0.88601257  0.89844530    -0.36300
N379        N  0.39672725  0.89666108  0.88811648    -0.28500
C380        C  0.39706148  0.89035644  0.87438483    -0.03800
C381        C  0.39854874  0.87486472  0.87589766     0.04900
C382        C  0.39913995  0.87257034  0.89141526     0.02900
H383        H  0.39586528  0.89672158  0.86408867     0.08000
H384        H  0.39987744  0.86189911  0.89723228     0.06900
N385        N  0.43975167  0.89729369  0.12489619    -0.27500
N386        N  0.44245192  0.89223780  0.11118419    -0.35400
C387        C  0.45746876  0.89061314  0.10929066     0.00800
C388        C  0.46463692  0.89502994  0.12244373     0.06900
C389        C  0.45298696  0.89919709  0.13207836    -0.06200
H390        H  0.46280279  0.88723857  0.09885791     0.07500
H391        H  0.45405287  0.90348501  0.14342300     0.08700
Cu392      Cu  0.42529669  0.89008947  0.09547157     0.44200
Cu393      Cu  0.41790027  0.90145779  0.13260832     0.42000
Cu394      Cu  0.38628695  0.90067595  0.10621164     0.43900
N395        N  0.40773096  0.89338377  0.08040861    -0.34900
N396        N  0.39387367  0.89780386  0.08387929    -0.29100
C397        C  0.38624560  0.90025425  0.07094244    -0.05200
C398        C  0.39574406  0.89712267  0.05881710     0.07000
C399        C  0.40921541  0.89279742  0.06537620     0.00800
H400        H  0.37469358  0.90416475  0.07041429     0.08400
H401        H  0.41965976  0.89006227  0.05966577     0.07500
N402        N  0.38356709  0.90194528  0.12975723    -0.36300
N403        N  0.39525136  0.90234486  0.13901103    -0.28500
C404        C  0.39024740  0.90184218  0.15327979    -0.03800
C405        C  0.37461035  0.90100580  0.15328648     0.04900
C406        C  0.37075172  0.90122751  0.13808984     0.02900
H407        H  0.39760436  0.90152830  0.16297474     0.08000
H408        H  0.35953545  0.90005446  0.13344020     0.06900
N409        N  0.43084220  0.12457808  0.89051807    -0.27500
N410        N  0.43331486  0.11042507  0.88654073    -0.35400
C411        C  0.44816753  0.10833802  0.88424593     0.00800
C412        C  0.45567166  0.12172852  0.88699223     0.06900
C413        C  0.44428085  0.13180354  0.89099051    -0.06200
H414        H  0.45319225  0.09758454  0.88148126     0.07500
H415        H  0.44567428  0.14348167  0.89416345     0.08700
Cu416      Cu  0.41715930  0.09353937  0.88624562     0.44200
Cu417      Cu  0.40906481  0.13297876  0.89547638     0.42000
Cu418      Cu  0.38134514  0.10295621  0.90133080     0.43900
N419        N  0.40090394  0.07742996  0.89097378    -0.34900
N420        N  0.38783724  0.08084363  0.89728589    -0.29100
C421        C  0.38029967  0.06803201  0.90034546    -0.05200
C422        C  0.38903285  0.05594422  0.89562558     0.07000
C423        C  0.40201359  0.06237395  0.88970475     0.00800
H424        H  0.36933745  0.06756689  0.90572264     0.08400
H425        H  0.41185327  0.05653212  0.88544669     0.07500
N426        N  0.37610984  0.12577105  0.90159387    -0.36300
N427        N  0.38582135  0.13686291  0.89927089    -0.28500
C428        C  0.37802393  0.14996399  0.89865024    -0.03800
C429        C  0.36267885  0.14692873  0.90055426     0.04900
C430        C  0.36207549  0.13143629  0.90248824     0.02900
H431        H  0.38305620  0.16078581  0.89615750     0.08000
H432        H  0.35208939  0.12456561  0.90386075     0.06900
C433        C  0.65196901  0.28601694  0.29671228     0.86300
C434        C  0.66131370  0.28250915  0.31097403    -0.54000
C435        C  0.66492575  0.29477769  0.31944834     0.09200
C436        C  0.65853284  0.30953943  0.31320925     0.20100
C437        C  0.63782973  0.29418518  0.30319608    -0.54700
C438        C  0.64149047  0.30657135  0.31196498     0.09300
C439        C  0.66079336  0.29843697  0.28849404    -0.54200
C440        C  0.66450049  0.31061628  0.29702331     0.09900
H441        H  0.66507186  0.27123688  0.31388266     0.14400
H442        H  0.66127283  0.31940581  0.32035588     0.00100
H443        H  0.62635374  0.29015148  0.30183080     0.14700
H444        H  0.66408398  0.29736997  0.27675914     0.14500
N445        N  0.72797956  0.26980408  0.41169771    -0.27500
N446        N  0.73773386  0.27451543  0.40145818    -0.35400
C447        C  0.73032218  0.27856722  0.38896548     0.00800
C448        C  0.71511266  0.27614449  0.39128254     0.06900
C449        C  0.71396624  0.27048243  0.40580520    -0.06200
H450        H  0.73570733  0.28222075  0.37864447     0.07500
H451        H  0.70376645  0.26706337  0.41159693     0.08700
Cu452      Cu  0.76073434  0.27261208  0.40357381     0.44200
Cu453      Cu  0.73504560  0.26282693  0.43295496     0.42000
Cu454      Cu  0.77635987  0.25669574  0.43667895     0.43900
N455        N  0.78222968  0.26397695  0.40443417    -0.34900
N456        N  0.78828276  0.25798095  0.41661381    -0.29100
C457        C  0.80163016  0.25168738  0.41288838    -0.05200
C458        C  0.80382699  0.25375663  0.39759751     0.07000
C459        C  0.79131723  0.26149883  0.39261637     0.00800
H460        H  0.80861806  0.24518951  0.42046281     0.08400
H461        H  0.78860423  0.26436172  0.38109479     0.07500
N462        N  0.76098296  0.25610775  0.45433062    -0.36300
N463        N  0.74625362  0.25831277  0.45309381    -0.28500
C464        C  0.74000402  0.25770382  0.46690744    -0.03800
C465        C  0.75129669  0.25489907  0.47733892     0.04900
C466        C  0.76442643  0.25394632  0.46889283     0.02900
H467        H  0.72810604  0.25931265  0.46914740     0.08000
H468        H  0.77578087  0.25226462  0.47301780     0.06900
C469        C  0.86183278  0.22912808  0.30456625     0.86300
C470        C  0.85402127  0.23406263  0.31927532    -0.54000
C471        C  0.85042749  0.22255637  0.32870820     0.09200
C472        C  0.85524076  0.20707219  0.32301059     0.20100
C473        C  0.87594108  0.22027693  0.31019381    -0.54700
C474        C  0.87221864  0.20862938  0.31991570     0.09300
C475        C  0.85144413  0.21684513  0.29792969    -0.54200
C476        C  0.84788691  0.20545646  0.30758059     0.09900
H477        H  0.85087164  0.24564793  0.32167261     0.14400
H478        H  0.85226247  0.19789451  0.33099972     0.00100
H479        H  0.88749025  0.22304847  0.30720701     0.14700
H480        H  0.84692168  0.21740682  0.28658406     0.14500
C481        C  0.64759815  0.22053494  0.23264798     0.86300
C482        C  0.66014419  0.22586665  0.22183291    -0.54000
C483        C  0.66586216  0.21489116  0.21273896     0.09200
C484        C  0.65863725  0.19943667  0.21524406     0.20100
C485        C  0.63564902  0.21329321  0.22200652    -0.54700
C486        C  0.64161897  0.20204049  0.21297019     0.09300
C487        C  0.65439162  0.20698954  0.24101511    -0.54200
C488        C  0.66065818  0.19620103  0.23205654     0.09900
H489        H  0.66413370  0.23743167  0.22144383     0.14400
H490        H  0.66353844  0.19061548  0.20786325     0.00100
H491        H  0.62384349  0.21650805  0.22170100     0.14700
H492        H  0.65475940  0.20643058  0.25322044     0.14500
C493        C  0.86790419  0.29361470  0.23991793     0.86300
C494        C  0.85900179  0.28442305  0.22828686    -0.54000
C495        C  0.85365678  0.29238651  0.21631611     0.09200
C496        C  0.85805579  0.30907372  0.21689042     0.20100
C497        C  0.88067323  0.30127498  0.23060442    -0.54700
C498        C  0.87529641  0.30940405  0.21848468     0.09300
C499        C  0.85746103  0.30690853  0.24414177    -0.54200
C500        C  0.85227659  0.31493269  0.23209696     0.09900
H501        H  0.85718839  0.27239706  0.22957900     0.14400
H502        H  0.85390335  0.31582021  0.20723851     0.00100
H503        H  0.89253009  0.30100469  0.23360254     0.14700
H504        H  0.85434591  0.30961349  0.25565852     0.14500
N505        N  0.79236405  0.25789193  0.12496006    -0.27500
N506        N  0.78766919  0.24915350  0.13602237    -0.35400
C507        C  0.79565401  0.25196737  0.14844753     0.00800
C508        C  0.80612254  0.26312812  0.14532305     0.06900
C509        C  0.80371013  0.26662284  0.13018873    -0.06200
H510        H  0.79333000  0.24662631  0.15912898     0.07500
H511        H  0.80946590  0.27510297  0.12358276     0.08700
Cu512      Cu  0.76909317  0.23547369  0.13512817     0.44200
Cu513      Cu  0.78170768  0.25703170  0.10397348     0.42000
Cu514      Cu  0.74500493  0.23542990  0.10392832     0.43900
N515        N  0.74750343  0.22733255  0.13635486    -0.34900
N516        N  0.73804231  0.22745040  0.12491172    -0.29100
C517        C  0.72428564  0.22321014  0.12992461    -0.05200
C518        C  0.72526338  0.22057165  0.14531982     0.07000
C519        C  0.74017485  0.22326374  0.14892084     0.00800
H520        H  0.71416743  0.22304654  0.12312736     0.08400
H521        H  0.74521352  0.22303127  0.16000045     0.07500
N522        N  0.75623731  0.24363384  0.08491404    -0.36300
N523        N  0.76903204  0.25139399  0.08489258    -0.28500
C524        C  0.77309844  0.25411732  0.07052532    -0.03800
C525        C  0.76249178  0.24770904  0.06100801     0.04900
C526        C  0.75197128  0.24120151  0.07058927     0.02900
H527        H  0.78337542  0.25985711  0.06727512     0.08000
H528        H  0.74198746  0.23495344  0.06742977     0.06900
N529        N  0.78447944  0.11212719  0.28798125    -0.27500
N530        N  0.77403526  0.12265322  0.28885560    -0.35400
C531        C  0.78025888  0.13559408  0.29348583     0.00800
C532        C  0.79551332  0.13319896  0.29572651     0.06900
C533        C  0.79780924  0.11809545  0.29224033    -0.06200
H534        H  0.77418340  0.14611334  0.29449856     0.07500
H535        H  0.80847461  0.11216112  0.29196268     0.08700
Cu536      Cu  0.75260483  0.11951890  0.28096588     0.44200
Cu537      Cu  0.77896543  0.09107205  0.27928075     0.42000
Cu538      Cu  0.74121219  0.08721472  0.25973501     0.43900
N539        N  0.73387509  0.11904786  0.26758385    -0.34900
N540        N  0.72942122  0.10767149  0.25914162    -0.29100
C541        C  0.71744118  0.11227391  0.25088979    -0.05200
C542        C  0.71438059  0.12727987  0.25445649     0.07000
C543        C  0.72517599  0.13103104  0.26501785     0.00800
H544        H  0.71155381  0.10531222  0.24282237     0.08400
H545        H  0.72715538  0.14187472  0.27016092     0.07500
N546        N  0.75625363  0.06957013  0.26448059    -0.36300
N547        N  0.76946227  0.07113651  0.27130246    -0.28500
C548        C  0.77573129  0.05748939  0.27314951    -0.03800
C549        C  0.76612911  0.04666308  0.26730920     0.04900
C550        C  0.75390319  0.05479156  0.26184014     0.02900
H551        H  0.78649174  0.05566270  0.27857419     0.08000
H552        H  0.74378682  0.05029170  0.25674004     0.06900
N553        N  0.78775738  0.40639936  0.25728759    -0.27500
N554        N  0.77850832  0.39597319  0.25206709    -0.35400
C555        C  0.78654452  0.38412857  0.24728200     0.00800
C556        C  0.80166911  0.38701101  0.24970356     0.06900
C557        C  0.80207271  0.40126459  0.25615118    -0.06200
H558        H  0.78161947  0.37368518  0.24338145     0.07500
H559        H  0.81194888  0.40727414  0.26003626     0.08700
Cu560      Cu  0.75543777  0.39614474  0.25501052     0.44200
Cu561      Cu  0.77951716  0.42650009  0.26622571     0.42000
Cu562      Cu  0.74010161  0.42361955  0.27954275     0.43900
N563        N  0.73512535  0.39330563  0.26600778    -0.34900
N564        N  0.72963399  0.40312050  0.27571388    -0.29100
C565        C  0.71748449  0.39706713  0.28254959    -0.05200
C566        C  0.71529025  0.38261538  0.27692786     0.07000
C567        C  0.72674040  0.38073806  0.26639460     0.00800
H568        H  0.71115063  0.40260591  0.29137008     0.08400
H569        H  0.72937200  0.37076411  0.25993930     0.07500
N570        N  0.75234399  0.44347755  0.27837689    -0.36300
N571        N  0.76630972  0.44468899  0.27316910    -0.28500
C572        C  0.76986866  0.45939811  0.27212851    -0.03800
C573        C  0.75761475  0.46781319  0.27702013     0.04900
C574        C  0.74677030  0.45731049  0.28095264     0.02900
H575        H  0.78044450  0.46363356  0.26771774     0.08000
H576        H  0.73530084  0.45954670  0.28452048     0.06900
C577        C  0.79533902  0.78608971  0.37732571     0.86300
C578        C  0.80743831  0.77543735  0.37057841    -0.54000
C579        C  0.81979251  0.78262418  0.36472843     0.09200
C580        C  0.81894132  0.79980576  0.36590879     0.20100
C581        C  0.80405208  0.79605581  0.38872737    -0.54700
C582        C  0.81640037  0.80319789  0.38259117     0.09300
C583        C  0.79176577  0.79692480  0.36411084    -0.54200
C584        C  0.80407020  0.80414205  0.35832461     0.09900
H585        H  0.80621306  0.76331418  0.36985795     0.14400
H586        H  0.82887130  0.80574511  0.36105325     0.00100
H587        H  0.80056986  0.79759448  0.40034598     0.14700
H588        H  0.78054652  0.79871506  0.35956087     0.14500
C589        C  0.73272204  0.79154073  0.14565283     0.86300
C590        C  0.71998506  0.78741054  0.15681235    -0.54000
C591        C  0.71174201  0.79938879  0.16172367     0.09200
C592        C  0.71654255  0.81441810  0.15478974     0.20100
C593        C  0.72428576  0.79980436  0.13270520    -0.54700
C594        C  0.71569847  0.81178664  0.13775402     0.09300
C595        C  0.74174776  0.80408736  0.15347920    -0.54200
C596        C  0.73338368  0.81598507  0.15840013     0.09900
H597        H  0.71804929  0.77604325  0.16091642     0.14400
H598        H  0.70949891  0.82399411  0.15871519     0.00100
H599        H  0.72456917  0.79633891  0.12100687     0.14700
H600        H  0.75388811  0.80341873  0.15504735     0.14500
N601        N  0.77500495  0.89308807  0.22968178    -0.27500
N602        N  0.78453432  0.88318272  0.23532955    -0.35400
C603        C  0.78450423  0.87074966  0.22678589     0.00800
C604        C  0.77437605  0.87275314  0.21506905     0.06900
C605        C  0.76862418  0.88718199  0.21726316    -0.06200
H606        H  0.79062930  0.86063558  0.22967792     0.07500
H607        H  0.75988003  0.89271947  0.21084430     0.08700
Cu608      Cu  0.79418406  0.88516120  0.25628155     0.44200
Cu609      Cu  0.77036991  0.91327731  0.24057238     0.42000
Cu610      Cu  0.78206126  0.91499275  0.28039468     0.43900
N611        N  0.79514904  0.88384377  0.27937959    -0.34900
N612        N  0.78984289  0.89430167  0.28853488    -0.29100
C613        C  0.78939352  0.88860792  0.30262129    -0.05200
C614        C  0.79472517  0.87386091  0.30221172     0.07000
C615        C  0.79829579  0.87135429  0.28725963     0.00800
H616        H  0.78497800  0.89455567  0.31229823     0.08400
H617        H  0.80176872  0.86082475  0.28220709     0.07500
N618        N  0.77464301  0.93349474  0.26781518    -0.36300
N619        N  0.76999616  0.93266830  0.25368321    -0.28500
C620        C  0.76607277  0.94650721  0.24893711    -0.03800
C621        C  0.76847388  0.95664873  0.26052354     0.04900
C622        C  0.77394655  0.94797240  0.27231657     0.02900
H623        H  0.76222730  0.94904321  0.23767015     0.08000
H624        H  0.77718557  0.95187283  0.28338158     0.06900
C625        C  0.79770724  0.72774007  0.15489918     0.86300
C626        C  0.81040553  0.73582010  0.16357077    -0.54000
C627        C  0.82204044  0.72687015  0.16811063     0.09200
C628        C  0.82022642  0.71049523  0.16295667     0.20100
C629        C  0.80598944  0.72022311  0.14135082    -0.54700
C630        C  0.81791096  0.71113556  0.14583531     0.09300
C631        C  0.79321912  0.71419796  0.16478412    -0.54200
C632        C  0.80494637  0.70533919  0.16905703     0.09900
H633        H  0.80988292  0.74776136  0.16613728     0.14400
H634        H  0.82951347  0.70288890  0.16646949     0.00100
H635        H  0.80259344  0.72148056  0.12969779     0.14700
H636        H  0.78168374  0.71198365  0.16835235     0.14500
N637        N  0.76847732  0.61832550  0.23287133    -0.27500
N638        N  0.77279443  0.62898448  0.24228442    -0.35400
C639        C  0.77918949  0.64023483  0.23451393     0.00800
C640        C  0.77879084  0.63660253  0.21941363     0.06900
C641        C  0.77183974  0.62263704  0.21871198    -0.06200
H642        H  0.78300303  0.65070662  0.23943879     0.07500
H643        H  0.76927839  0.61619115  0.20870826     0.08700
Cu644      Cu  0.76744681  0.62926872  0.26482308     0.44200
Cu645      Cu  0.75848735  0.59866618  0.24046717     0.42000
Cu646      Cu  0.74513137  0.59943643  0.27983335     0.43900
N647        N  0.75594431  0.63092252  0.28490395    -0.34900
N648        N  0.74715309  0.62022524  0.29034998    -0.29100
C649        C  0.74010503  0.62547851  0.30272733    -0.05200
C650        C  0.74467322  0.64027817  0.30512800     0.07000
C651        C  0.75475476  0.64324201  0.29353675     0.00800
H652        H  0.73203608  0.61905751  0.30924629     0.08400
H653        H  0.76038359  0.65375196  0.29103938     0.07500
N654        N  0.74812761  0.58000544  0.26713606    -0.36300
N655        N  0.75295698  0.57979349  0.25303267    -0.28500
C656        C  0.75559301  0.56547282  0.24892961    -0.03800
C657        C  0.75230192  0.55615000  0.26100062     0.04900
C658        C  0.74748388  0.56578207  0.27230958     0.02900
H659        H  0.76020146  0.56221780  0.23812852     0.08000
H660        H  0.74467764  0.56280771  0.28378891     0.06900
N661        N  0.91070712  0.73984068  0.24011724    -0.27500
N662        N  0.89885649  0.74508688  0.24743790    -0.35400
C663        C  0.88684094  0.74529145  0.23830659     0.00800
C664        C  0.89114798  0.73977966  0.22439229     0.06900
C665        C  0.90642829  0.73637068  0.22594876    -0.06200
H666        H  0.87561447  0.74856104  0.24183585     0.07500
H667        H  0.91381766  0.73159519  0.21749602     0.08700
Cu668      Cu  0.89908265  0.75027123  0.26989568     0.44200
Cu669      Cu  0.93160732  0.73805817  0.25096589     0.42000
Cu670      Cu  0.93261600  0.75058168  0.29172840     0.43900
N671        N  0.89901888  0.75397840  0.29264507    -0.34900
N672        N  0.91118276  0.75464810  0.30117860    -0.29100
C673        C  0.90675554  0.75778631  0.31544407    -0.05200
C674        C  0.89103588  0.75881075  0.31571084     0.07000
C675        C  0.88668007  0.75635652  0.30101928     0.00800
H676        H  0.91433134  0.75907338  0.32489032     0.08400
H677        H  0.87532058  0.75664694  0.29657087     0.07500
N678        N  0.95150734  0.74493085  0.27840009    -0.36300
N679        N  0.95102290  0.74000456  0.26430543    -0.28500
C680        C  0.96523358  0.73753025  0.25944813    -0.03800
C681        C  0.97524169  0.74121840  0.27084046     0.04900
C682        C  0.96609130  0.74587065  0.28267152     0.02900
H683        H  0.96808767  0.73389089  0.24817679     0.08000
H684        H  0.96976507  0.74974860  0.29360814     0.06900
C685        C  0.72761045  0.72766650  0.38040273     0.86300
C686        C  0.71493565  0.73587947  0.37172382    -0.54000
C687        C  0.70493261  0.72653410  0.36463159     0.09200
C688        C  0.70847584  0.70971968  0.36679408     0.20100
C689        C  0.71893864  0.71685770  0.39116977    -0.54700
C690        C  0.70888238  0.70748063  0.38391097     0.09300
C691        C  0.73466339  0.71725949  0.36845360    -0.54200
C692        C  0.72483710  0.70783151  0.36141166     0.09900
H693        H  0.71368311  0.74795710  0.37112829     0.14400
H694        H  0.70043830  0.70214257  0.36095401     0.00100
H695        H  0.72044519  0.71680590  0.40328761     0.14700
H696        H  0.74665778  0.71726835  0.36590121     0.14500
N697        N  0.62558374  0.77652961  0.23411104    -0.27500
N698        N  0.63613629  0.78221280  0.24288727    -0.35400
C699        C  0.64821961  0.78587468  0.23456594     0.00800
C700        C  0.64521411  0.78231391  0.21972861     0.06900
C701        C  0.63072602  0.77634478  0.21982320    -0.06200
H702        H  0.65869389  0.79013856  0.23913688     0.07500
H703        H  0.62443549  0.77213726  0.21028592     0.08700
Cu704      Cu  0.63471631  0.78229814  0.26594937     0.44200
Cu705      Cu  0.60512624  0.76945403  0.24297585     0.42000
Cu706      Cu  0.60417177  0.76333763  0.28431265     0.43900
N707        N  0.63602505  0.77421014  0.28754781    -0.34900
N708        N  0.62534804  0.76629113  0.29428114    -0.29100
C709        C  0.63105171  0.76051386  0.30713468    -0.05200
C710        C  0.64602396  0.76513336  0.30845383     0.07000
C711        C  0.64865138  0.77380412  0.29579218     0.00800
H712        H  0.62491363  0.75314706  0.31467430     0.08400
H713        H  0.65929046  0.77858651  0.29217651     0.07500
N714        N  0.58513570  0.76420829  0.27039405    -0.36300
N715        N  0.58568178  0.76636506  0.25565511    -0.28500
C716        C  0.57156160  0.76748875  0.25030122    -0.03800
C717        C  0.56148663  0.76599472  0.26214841     0.04900
C718        C  0.57054130  0.76385155  0.27472793     0.02900
H719        H  0.56892362  0.76955454  0.23860396     0.08000
H720        H  0.56685298  0.76271628  0.28628624     0.06900
C721        C  0.29509087  0.88064570  0.23808349     0.86300
C722        C  0.30850069  0.87388368  0.24693805    -0.54000
C723        C  0.31920606  0.86686117  0.23828635     0.09200
C724        C  0.31565060  0.86753433  0.22136286     0.20100
C725        C  0.30254937  0.89121603  0.22628592    -0.54700
C726        C  0.31349284  0.88430708  0.21768053     0.09300
C727        C  0.28930909  0.86718311  0.22872353    -0.54200
C728        C  0.29993125  0.86052994  0.21977193     0.09900
H729        H  0.30935070  0.87410391  0.25904888     0.14400
H730        H  0.32410970  0.86184727  0.21413892     0.00100
H731        H  0.29958998  0.90300933  0.22502303     0.14700
H732        H  0.27763514  0.86345799  0.22888854     0.14500
N733        N  0.25389402  0.73090729  0.13041298    -0.27500
N734        N  0.25632686  0.73864102  0.14284156    -0.35400
C735        C  0.25325337  0.73010156  0.15484891     0.00800
C736        C  0.24864962  0.71609482  0.14993360     0.06900
C737        C  0.24905300  0.71699618  0.13428307    -0.06200
H738        H  0.25446508  0.73389881  0.16634823     0.07500
H739        H  0.24647980  0.70811739  0.12636028     0.08700
Cu740      Cu  0.26493883  0.75995148  0.14352627     0.44200
Cu741      Cu  0.25844238  0.74059361  0.10946853     0.42000
Cu742      Cu  0.27782766  0.77875689  0.11141902     0.43900
N743        N  0.27589393  0.78014020  0.14480936    -0.34900
N744        N  0.28113057  0.78751942  0.13303022    -0.29100
C745        C  0.28768765  0.80036042  0.13792112    -0.05200
C746        C  0.28634671  0.80095248  0.15356345     0.07000
C747        C  0.27886391  0.78783063  0.15739859     0.00800
H748        H  0.29270277  0.80876080  0.13064314     0.08400
H749        H  0.27575048  0.78399528  0.16853130     0.07500
N750        N  0.27140022  0.76731097  0.09181794    -0.36300
N751        N  0.26446549  0.75408765  0.09111036    -0.28500
C752        C  0.26177816  0.75075441  0.07656851    -0.03800
C753        C  0.26727953  0.76233494  0.06762327     0.04900
C754        C  0.27330734  0.77259113  0.07774379     0.02900
H755        H  0.25626962  0.74055326  0.07283078     0.08000
H756        H  0.27848579  0.78331474  0.07515201     0.06900
C757        C  0.23418832  0.64050645  0.23782923     0.86300
C758        C  0.22177727  0.65100174  0.24425845    -0.54000
C759        C  0.21225996  0.65699491  0.23372927     0.09200
C760        C  0.21612824  0.65212399  0.21757996     0.20100
C761        C  0.22532332  0.62864008  0.22849677    -0.54700
C762        C  0.21594574  0.63486156  0.21781241     0.09300
C763        C  0.24205862  0.65061370  0.22600888    -0.54200
C764        C  0.23264745  0.65666347  0.21547686     0.09900
H765        H  0.22103255  0.65408246  0.25604402     0.14400
H766        H  0.20847453  0.65688369  0.20893749     0.00100
H767        H  0.22639463  0.61658087  0.23016711     0.14700
H768        H  0.25393785  0.65353586  0.22633115     0.14500
C769        C  0.23205763  0.88146363  0.30111134     0.86300
C770        C  0.22145879  0.87128380  0.29185557    -0.54000
C771        C  0.21071905  0.86384885  0.30001321     0.09200
C772        C  0.21154347  0.86723013  0.31695015     0.20100
C773        C  0.22121281  0.89202178  0.31000896    -0.54700
C774        C  0.21052595  0.88440574  0.31840798     0.09300
C775        C  0.23841541  0.87056192  0.31318829    -0.54200
C776        C  0.22773508  0.86327737  0.32158739     0.09900
H777        H  0.22248755  0.86976668  0.27982127     0.14400
H778        H  0.20282559  0.86138106  0.32372015     0.00100
H779        H  0.22215996  0.90420569  0.30996189     0.14700
H780        H  0.25036135  0.86838567  0.31470339     0.14500
N781        N  0.12980523  0.73360711  0.24977772    -0.27500
N782        N  0.13958781  0.74379027  0.24496167    -0.35400
C783        C  0.15171681  0.73682310  0.23914251     0.00800
C784        C  0.14967512  0.72148570  0.24057761     0.06900
C785        C  0.13569270  0.71979234  0.24743606    -0.06200
H786        H  0.16171993  0.74252629  0.23506376     0.07500
H787        H  0.13028522  0.70933030  0.25060385     0.08700
Cu788      Cu  0.13792190  0.76649188  0.24949903     0.44200
Cu789      Cu  0.10901680  0.73946723  0.25931319     0.42000
Cu790      Cu  0.10663736  0.77853677  0.27196492     0.43900
N791        N  0.13799885  0.78631964  0.26157434    -0.34900
N792        N  0.12675663  0.79066436  0.27033287    -0.29100
C793        C  0.13115532  0.80291283  0.27812845    -0.05200
C794        C  0.14594309  0.80640284  0.27410559     0.07000
C795        C  0.14981859  0.79557180  0.26354055     0.00800
H796        H  0.12421310  0.80854633  0.28642048     0.08400
H797        H  0.16069030  0.79392619  0.25823927     0.07500
N798        N  0.08825809  0.76382062  0.27127117    -0.36300
N799        N  0.08902047  0.74968111  0.26662922    -0.28500
C800        C  0.07503085  0.74366499  0.26694427    -0.03800
C801        C  0.06494854  0.75448515  0.27212473     0.04900
C802        C  0.07382998  0.76709642  0.27475341     0.02900
H803        H  0.07241040  0.73225065  0.26359682     0.08000
H804        H  0.07004560  0.77804106  0.27854121     0.06900
C805        C  0.30214464  0.64411423  0.29562025     0.86300
C806        C  0.31365380  0.65511187  0.28850687    -0.54000
C807        C  0.32246165  0.66267205  0.29857929     0.09200
C808        C  0.31892350  0.65882385  0.31506067     0.20100
C809        C  0.31188111  0.63384601  0.30596814    -0.54700
C810        C  0.32060655  0.64167340  0.31618908     0.09300
C811        C  0.29328997  0.65434121  0.30653821    -0.54200
C812        C  0.30197602  0.66192820  0.31665139     0.09900
H813        H  0.31454262  0.65720151  0.27651102     0.14400
H814        H  0.32592883  0.66516994  0.32325434     0.00100
H815        H  0.31192876  0.62164957  0.30520137     0.14700
H816        H  0.28118349  0.65608219  0.30603273     0.14500
N817        N  0.24351800  0.78475194  0.40227776    -0.27500
N818        N  0.23939469  0.77505837  0.39178040    -0.35400
C819        C  0.23394001  0.78258306  0.37989042     0.00800
C820        C  0.23483693  0.79781346  0.38285751     0.06900
C821        C  0.24104670  0.79884991  0.39714756    -0.06200
H822        H  0.23034772  0.77736052  0.36949460     0.07500
H823        H  0.24356625  0.80904069  0.40332237     0.08700
Cu824      Cu  0.24412580  0.75235072  0.39254351     0.44200
Cu825      Cu  0.25198868  0.77753645  0.42294182     0.42000
Cu826      Cu  0.26500679  0.73826025  0.42391728     0.43900
N827        N  0.25662454  0.73278492  0.39176089    -0.34900
N828        N  0.26483488  0.72775848  0.40307026    -0.29100
C829        C  0.27333521  0.71616564  0.39821686    -0.05200
C830        C  0.27041043  0.71385164  0.38302035     0.07000
C831        C  0.25965886  0.72462650  0.37942108     0.00800
H832        H  0.28150221  0.71035596  0.40513373     0.08400
H833        H  0.25487030  0.72700247  0.36850088     0.07500
N834        N  0.26218539  0.75164550  0.44286169    -0.36300
N835        N  0.25743621  0.76577136  0.44253375    -0.28500
C836        C  0.25572812  0.77068319  0.45676017    -0.03800
C837        C  0.25962326  0.75914398  0.46654818     0.04900
C838        C  0.26371809  0.74727062  0.45728004    -0.11500
H839        H  0.25165743  0.78178155  0.45971350     0.08000
H840        H  0.26694862  0.73603872  0.46071721     0.06900
N841        N  0.40677778  0.73847015  0.28015030    -0.27500
N842        N  0.39440606  0.74648841  0.27816635    -0.35400
C843        C  0.38227620  0.73777925  0.28056651     0.00800
C844        C  0.38719441  0.72352384  0.28442452     0.06900
C845        C  0.40284269  0.72434717  0.28412696    -0.06200
H846        H  0.37071754  0.74164110  0.27978288     0.07500
H847        H  0.41074052  0.71533548  0.28638333     0.08700
Cu848      Cu  0.39465981  0.76889535  0.27243494     0.44200
Cu849      Cu  0.42792532  0.74792330  0.27668601     0.42000
Cu850      Cu  0.42911847  0.78704949  0.26106006     0.43900
N851        N  0.39568648  0.79078126  0.26503409    -0.34900
N852        N  0.40800164  0.79751109  0.25997457    -0.29100
C853        C  0.40415213  0.81126870  0.25473989    -0.05200
C854        C  0.38873610  0.81320965  0.25694005     0.07000
C855        C  0.38382989  0.79999744  0.26347797     0.00800
H856        H  0.41194062  0.81922281  0.24973446     0.08400
H857        H  0.37232429  0.79700734  0.26631499     0.07500
N858        N  0.44799282  0.77376383  0.26597144    -0.36300
N859        N  0.44738790  0.76011006  0.27198485    -0.28500
C860        C  0.46149627  0.75523428  0.27460189    -0.03800
C861        C  0.47152747  0.76619011  0.26991979     0.04900
C862        C  0.46260243  0.77776518  0.26443101     0.02900
H863        H  0.46424135  0.74440813  0.27947666     0.08000
H864        H  0.46642813  0.78847836  0.26004530     0.06900
C865        C  0.37287648  0.78806658  0.80379688     0.86300
C866        C  0.36229334  0.80084610  0.79857603    -0.54000
C867        C  0.35734183  0.81001548  0.80983317     0.09200
C868        C  0.36369327  0.80592745  0.82532295     0.20100
C869        C  0.38593192  0.79644609  0.81187666    -0.54700
C870        C  0.38086679  0.80583418  0.82316325     0.09300
C871        C  0.36427805  0.78013378  0.81666039    -0.54200
C872        C  0.35936194  0.78943908  0.82785287     0.09900
H873        H  0.35859902  0.80215312  0.78699530     0.14400
H874        H  0.35981610  0.81364896  0.83437428     0.00100
H875        H  0.39777624  0.79534767  0.80897395     0.14700
H876        H  0.36203733  0.76810527  0.81666888     0.14500
C877        C  0.14743712  0.72919063  0.79856400     0.86300
C878        C  0.15746774  0.71553428  0.79471076    -0.54000
C879        C  0.16200970  0.70738496  0.80687072     0.09200
C880        C  0.15597966  0.71336459  0.82187501     0.20100
C881        C  0.13410268  0.72203049  0.80740538    -0.54700
C882        C  0.13876930  0.71368748  0.81965522     0.09300
C883        C  0.15631455  0.73809067  0.81046128    -0.54200
C884        C  0.16101674  0.72988910  0.82256379     0.09900
H885        H  0.16077390  0.71261271  0.78329377     0.14400
H886        H  0.15965563  0.70639095  0.83157375     0.00100
H887        H  0.12238883  0.72263642  0.80393663     0.14700
H888        H  0.15887602  0.74997588  0.80911654     0.14500
N889        N  0.28765611  0.77551731  0.91601078    -0.27500
N890        N  0.27966438  0.77564090  0.90349048    -0.35400
C891        C  0.28881439  0.77804293  0.89173631     0.00800
C892        C  0.30339554  0.77955689  0.89696352     0.06900
C893        C  0.30230182  0.77804172  0.91249664    -0.06200
H894        H  0.28513938  0.77819453  0.88012767     0.07500
H895        H  0.31149303  0.77799099  0.92049437     0.08700
Cu896      Cu  0.25708977  0.77050385  0.90226863     0.44200
Cu897      Cu  0.27739612  0.77024687  0.93646321     0.42000
Cu898      Cu  0.23765587  0.75567672  0.93404713     0.43900
N899        N  0.23593890  0.76111971  0.90080895    -0.34900
N900        N  0.22864330  0.75513957  0.91231706    -0.29100
C901        C  0.21568934  0.74899432  0.90721587    -0.05200
C902        C  0.21486078  0.75129280  0.89172464     0.07000
C903        C  0.22797783  0.75902076  0.88816989     0.00800
H904        H  0.20756946  0.74320629  0.91425306     0.08400
H905        H  0.23183203  0.76245972  0.87713696     0.07500
N906        N  0.24988388  0.75876045  0.95394918    -0.36300
N907        N  0.26382949  0.76412765  0.95468233    -0.28500
C908        C  0.26800046  0.76495953  0.96919340    -0.03800
C909        C  0.25623743  0.75984469  0.97813255     0.04900
C910        C  0.24494310  0.75596673  0.96804534     0.02900
H911        H  0.27895328  0.76883710  0.97291011     0.08000
H912        H  0.23384899  0.75162563  0.97073266     0.06900
C913        C  0.15806981  0.78845271  0.72986997     0.86300
C914        C  0.16845946  0.80054888  0.73658092    -0.54000
C915        C  0.17259220  0.81168065  0.72691306     0.09200
C916        C  0.16570843  0.80999380  0.71121477     0.20100
C917        C  0.14438223  0.79753389  0.72378623    -0.54700
C918        C  0.14857518  0.80875673  0.71383130     0.09300
C919        C  0.16625444  0.78302516  0.71549474    -0.54200
C920        C  0.17039944  0.79425286  0.70583304     0.09900
H921        H  0.17249598  0.80013542  0.74812120     0.14400
H922        H  0.16898477  0.81915851  0.70333697     0.00100
H923        H  0.13269627  0.79510845  0.72652922     0.14700
H924        H  0.16895128  0.77127346  0.71341501     0.14500
N925        N  0.29136957  0.74478969  0.61982781    -0.27500
N926        N  0.28883077  0.75643172  0.62871554    -0.35400
C927        C  0.29675864  0.75479176  0.64141558     0.00800
C928        C  0.30469368  0.74139139  0.64064507     0.06900
C929        C  0.30114513  0.73538878  0.62667026    -0.06200
H930        H  0.29612162  0.76249906  0.65081716     0.07500
H931        H  0.30468193  0.72462477  0.62218741     0.08700
Cu932      Cu  0.27204500  0.77212252  0.62539503     0.44200
Cu933      Cu  0.27992138  0.74224602  0.59968961     0.42000
Cu934      Cu  0.24423429  0.76362775  0.59815718     0.43900
N935        N  0.25015105  0.77972206  0.62710766    -0.34900
N936        N  0.23928100  0.77540885  0.61791823    -0.29100
C937        C  0.22586717  0.77929115  0.62403995    -0.05200
C938        C  0.22857627  0.78657522  0.63761942     0.07000
C939        C  0.24409783  0.78664827  0.63910362     0.00800
H940        H  0.21498397  0.77658858  0.61923830     0.08400
H941        H  0.25046127  0.79025839  0.64883905     0.07500
N942        N  0.25491824  0.75384600  0.57955137    -0.36300
N943        N  0.26760225  0.74599973  0.58023536    -0.28500
C944        C  0.27208905  0.74250276  0.56620171    -0.03800
C945        C  0.26185261  0.74849898  0.55606283     0.04900
C946        C  0.25108412  0.75557574  0.56499467     0.02900
H947        H  0.28252356  0.73672681  0.56361320     0.08000
H948        H  0.24139046  0.76194014  0.56123684     0.06900
N949        N  0.29226066  0.89906583  0.77846401    -0.27500
N950        N  0.28205047  0.88955919  0.78367094    -0.35400
C951        C  0.28898228  0.87713931  0.78879351     0.00800
C952        C  0.30434513  0.87879208  0.78654291     0.06900
C953        C  0.30604654  0.89285182  0.77994131    -0.06200
H954        H  0.28317560  0.86719150  0.79281613     0.07500
H955        H  0.31645631  0.89802545  0.77619023     0.08700
Cu956      Cu  0.25925760  0.89234202  0.78002156     0.44200
Cu957      Cu  0.28610319  0.91958491  0.76921850     0.42000
Cu958      Cu  0.24636233  0.92330523  0.75732871     0.43900
N959        N  0.23962795  0.89187939  0.76761672    -0.34900
N960        N  0.23496392  0.90277823  0.75863887    -0.29100
C961        C  0.22340064  0.89753522  0.75025225    -0.05200
C962        C  0.22087788  0.88253666  0.75405489     0.07000
C963        C  0.23133529  0.87950667  0.76521511     0.00800
H964        H  0.21789952  0.90387003  0.74142668     0.08400
H965        H  0.23341451  0.86885621  0.77073018     0.07500
N966        N  0.26151233  0.94121891  0.75926903    -0.36300
N967        N  0.27574236  0.93974124  0.76355528    -0.28500
C968        C  0.28209886  0.95344483  0.76454075    -0.03800
C969        C  0.27145116  0.96414249  0.76063128     0.04900
C970        C  0.25853386  0.95596323  0.75729679     0.02900
H971        H  0.29363683  0.95543126  0.76797837     0.08000
H972        H  0.24762051  0.96040922  0.75413276     0.06900
C973        C  0.36375522  0.72516821  0.73807613     0.86300
C974        C  0.35493638  0.71205587  0.74516922    -0.54000
C975        C  0.34986135  0.70152476  0.73531092     0.09200
C976        C  0.35479604  0.70449727  0.71904472     0.20100
C977        C  0.37701487  0.71723358  0.72970058    -0.54700
C978        C  0.37205649  0.70626323  0.71971667     0.09300
C979        C  0.35374639  0.73099220  0.72521945    -0.54200
C980        C  0.34888489  0.72027195  0.71546926     0.09900
H981        H  0.35234293  0.71158142  0.75712363     0.14400
H982        H  0.35080343  0.69584527  0.71094836     0.00100
H983        H  0.38884182  0.71987438  0.73142390     0.14700
H984        H  0.35051442  0.74275238  0.72412872     0.14500
N985        N  0.21972753  0.61470482  0.77321513    -0.27500
N986        N  0.23029226  0.62382165  0.77837340    -0.35400
C987        C  0.22378146  0.63553630  0.78537947     0.00800
C988        C  0.20827539  0.63389191  0.78451661     0.06900
C989        C  0.20610574  0.62049642  0.77671873    -0.06200
H990        H  0.22989920  0.64520459  0.78957431     0.07500
H991        H  0.19545802  0.61566991  0.77323499     0.08700
Cu992      Cu  0.25270308  0.62211349  0.77239327     0.44200
Cu993      Cu  0.22498433  0.59575606  0.76041570     0.42000
Cu994      Cu  0.26257137  0.59663132  0.74266129     0.43900
N995        N  0.27233290  0.62374362  0.76001713    -0.34900
N996        N  0.27582008  0.61494487  0.74855777    -0.29100
C997        C  0.28839157  0.62029801  0.74186906    -0.05200
C998        C  0.29294237  0.63319158  0.74947307     0.07000
C999        C  0.28246055  0.63489721  0.76095922     0.00800
H1000       H  0.29344250  0.61547560  0.73188025     0.08400
H1001       H  0.28177543  0.64385530  0.76916024     0.07500
N1002       N  0.24828396  0.57811503  0.74258117    -0.36300
N1003       N  0.23491053  0.57763518  0.74923652    -0.28500
C1004       C  0.22981911  0.56335455  0.74898497    -0.03800
C1005       C  0.24048167  0.55438481  0.74184462     0.04900
C1006       C  0.25196856  0.56421177  0.73785709     0.02900
H1007       H  0.21942232  0.55970517  0.75425467     0.08000
H1008       H  0.26275495  0.56131959  0.73291104     0.06900
C1009       C  0.78536896  0.38149764  0.80150806     0.86300
C1010       C  0.77830551  0.37077826  0.81330549    -0.54000
C1011       C  0.78825644  0.36425897  0.82306840     0.09200
C1012       C  0.80465997  0.36901934  0.82013020     0.20100
C1013       C  0.79459547  0.39296406  0.81099280    -0.54700
C1014       C  0.80463818  0.38629540  0.82081183     0.09300
C1015       C  0.79743915  0.37151534  0.79388888    -0.54200
C1016       C  0.80752016  0.36508647  0.80356545     0.09900
H1017       H  0.76633277  0.36834381  0.81373930     0.14400
H1018       H  0.81295299  0.36366801  0.82778956     0.00100
H1019       H  0.79320182  0.40507485  0.81013390     0.14700
H1020       H  0.79773244  0.36906688  0.78194303     0.14500
C1021       C  0.79140879  0.13950917  0.73944209     0.86300
C1022       C  0.78548062  0.15231452  0.72929667    -0.54000
C1023       C  0.79592955  0.15810086  0.71965738     0.09200
C1024       C  0.81158675  0.15111993  0.72122656     0.20100
C1025       C  0.79851877  0.12800175  0.72818533    -0.54700
C1026       C  0.80924787  0.13426648  0.71878439     0.09300
C1027       C  0.80516144  0.14680599  0.74742695    -0.54200
C1028       C  0.81564935  0.15292381  0.73786802     0.09900
H1029       H  0.77389254  0.15631768  0.72951382     0.14400
H1030       H  0.81991936  0.15622417  0.71338242     0.00100
H1031       H  0.79540945  0.11618926  0.72776554     0.14700
H1032       H  0.80646986  0.14770489  0.75948341     0.14500
N1033       N  0.89385802  0.29077014  0.78619952    -0.27500
N1034       N  0.88157290  0.28337231  0.78226902    -0.35400
C1035       C  0.86947781  0.29226154  0.78385465     0.00800
C1036       C  0.87417944  0.30615287  0.78907647     0.06900
C1037       C  0.88979530  0.30479635  0.79052271    -0.06200
H1038       H  0.85803539  0.28862480  0.78168624     0.07500
H1039       H  0.89759598  0.31334485  0.79434778     0.08700
Cu1040     Cu  0.88133980  0.26130368  0.77565175     0.44200
Cu1041     Cu  0.91498147  0.28022566  0.78501288     0.42000
Cu1042     Cu  0.91451777  0.23947181  0.77236105     0.43900
N1043       N  0.88086353  0.23877716  0.77083602    -0.34900
N1044       N  0.89297717  0.23026356  0.76923709    -0.29100
C1045       C  0.88844780  0.21599369  0.76642193    -0.05200
C1046       C  0.87273956  0.21571223  0.76658574     0.07000
C1047       C  0.86842215  0.23035611  0.76937419     0.00800
H1048       H  0.89595154  0.20649987  0.76491095     0.08400
H1049       H  0.85701568  0.23461645  0.77035906     0.07500
N1050       N  0.93383207  0.25228916  0.77707755    -0.36300
N1051       N  0.93397058  0.26648945  0.78171466    -0.28500
C1052       C  0.94840612  0.27083676  0.78367013    -0.03800
C1053       C  0.95788373  0.25892674  0.78005574     0.04900
C1054       C  0.94818572  0.24737991  0.77592231     0.02900
H1055       H  0.95173141  0.28200105  0.78722453     0.08000
H1056       H  0.95129166  0.23612776  0.77243757     0.06900
C1057       C  0.72758159  0.37582310  0.73361087     0.86300
C1058       C  0.73522150  0.36444767  0.72286435    -0.54000
C1059       C  0.72569318  0.35708311  0.71328496     0.09200
C1060       C  0.70912139  0.36165546  0.71538067     0.20100
C1061       C  0.71841491  0.38635445  0.72307775    -0.54700
C1062       C  0.70880194  0.37881644  0.71350860     0.09300
C1063       C  0.71548993  0.36613840  0.74162637    -0.54200
C1064       C  0.70580776  0.35885576  0.73211136     0.09900
H1065       H  0.74726769  0.36230314  0.72293053     0.14400
H1066       H  0.70121366  0.35561474  0.70782354     0.00100
H1067       H  0.71945331  0.39853275  0.72318191     0.14700
H1068       H  0.71477600  0.36468719  0.75371779     0.14500
C1069       C  0.72664465  0.14546414  0.80119930     0.86300
C1070       C  0.73187403  0.15762091  0.81257834    -0.54000
C1071       C  0.72039642  0.16449334  0.82019106     0.09200
C1072       C  0.70468276  0.15894840  0.81573495     0.20100
C1073       C  0.71666619  0.13471542  0.81080864    -0.54700
C1074       C  0.70513350  0.14192351  0.81835023     0.09300
C1075       C  0.71539967  0.15411991  0.79106758    -0.54200
C1076       C  0.70391753  0.16103450  0.79865939     0.09900
H1077       H  0.74356286  0.16080322  0.81436636     0.14400
H1078       H  0.69550611  0.16472502  0.82203477     0.00100
H1079       H  0.71873601  0.12271004  0.81179970     0.14700
H1080       H  0.71656073  0.15519628  0.77896810     0.14500
N1081       N  0.61598522  0.22873535  0.77005909    -0.27500
N1082       N  0.62822443  0.23706395  0.76857553    -0.35400
C1083       C  0.64047610  0.22877386  0.77150726     0.00800
C1084       C  0.63586241  0.21439091  0.77516085     0.06900
C1085       C  0.62018263  0.21473395  0.77426288    -0.06200
H1086       H  0.65191574  0.23304575  0.77122693     0.07500
H1087       H  0.61247384  0.20549242  0.77626984     0.08700
Cu1088     Cu  0.62799544  0.25926463  0.76262165     0.44200
Cu1089     Cu  0.59486438  0.23791391  0.76532845     0.42000
Cu1090     Cu  0.59528137  0.27803660  0.75032378     0.43900
N1091       N  0.62839538  0.28099587  0.75514282    -0.34900
N1092       N  0.61653119  0.28832216  0.75000112    -0.29100
C1093       C  0.62112161  0.30203066  0.74519531    -0.05200
C1094       C  0.63662755  0.30323736  0.74763332     0.07000
C1095       C  0.64071303  0.28961238  0.75392149     0.00800
H1096       H  0.61377066  0.31042823  0.74030287     0.08400
H1097       H  0.65192848  0.28590205  0.75696399     0.07500
N1098       N  0.57618702  0.26445246  0.75344876    -0.36300
N1099       N  0.57608135  0.25051611  0.75882173    -0.28500
C1100       C  0.56173123  0.24560148  0.75948202    -0.03800
C1101       C  0.55224145  0.25688940  0.75431676     0.04900
C1102       C  0.56187477  0.26865002  0.75057566     0.02900
H1103       H  0.55854312  0.23451579  0.76339507     0.08000
H1104       H  0.55877125  0.27960325  0.74625497     0.06900
N1105       N  0.74900975  0.23157356  0.90864353    -0.27500
N1106       N  0.74592863  0.24136539  0.89789933    -0.35400
C1107       C  0.74049765  0.23405183  0.88585440     0.00800
C1108       C  0.74023775  0.21878764  0.88900133     0.06900
C1109       C  0.74570576  0.21763192  0.90362458    -0.06200
H1110       H  0.73806324  0.23938458  0.87518157     0.07500
H1111       H  0.74768593  0.20740647  0.90993905     0.08700
Cu1112     Cu  0.75234641  0.26364271  0.89875047     0.44200
Cu1113     Cu  0.75882263  0.23827881  0.92887638     0.42000
Cu1114     Cu  0.77655778  0.27617081  0.92844653     0.43900
N1115       N  0.76421199  0.28358877  0.89800650    -0.34900
N1116       N  0.77371606  0.28818373  0.90846492    -0.29100
C1117       C  0.78036335  0.30102347  0.90370764    -0.05200
C1118       C  0.77468442  0.30463144  0.88954857     0.07000
C1119       C  0.76450096  0.29321723  0.88640583     0.00800
H1120       H  0.78874300  0.30717829  0.91005433     0.08400
H1121       H  0.75807575  0.29158702  0.87620787     0.07500
N1122       N  0.77399183  0.26269037  0.94754666    -0.36300
N1123       N  0.76749933  0.24926022  0.94773529    -0.28500
C1124       C  0.76631634  0.24455767  0.96209873    -0.03800
C1125       C  0.77229080  0.25552303  0.97150802     0.04900
C1126       C  0.77711820  0.26680203  0.96178107     0.02900
H1127       H  0.76102936  0.23408444  0.96539514     0.08000
H1128       H  0.78187670  0.27759705  0.96479869     0.06900
N1129       N  0.78025722  0.22783166  0.63091804    -0.27500
N1130       N  0.78028205  0.23742003  0.64223911    -0.35400
C1131       C  0.78454300  0.23032657  0.65483111     0.00800
C1132       C  0.78731305  0.21540793  0.65135819     0.06900
C1133       C  0.78462428  0.21422449  0.63601162    -0.06200
H1134       H  0.78477394  0.23552901  0.66583443     0.07500
H1135       H  0.78479036  0.20406408  0.62929729     0.08700
Cu1136     Cu  0.77148887  0.25867692  0.64078520     0.44200
Cu1137     Cu  0.77214653  0.23421449  0.61001750     0.42000
Cu1138     Cu  0.75068195  0.27068142  0.60856794     0.43900
N1139       N  0.75807284  0.27744728  0.64064983    -0.34900
N1140       N  0.74990878  0.28209094  0.62914489    -0.29100
C1141       C  0.74196426  0.29434060  0.63350629    -0.05200
C1142       C  0.74542000  0.29742793  0.64849651     0.07000
C1143       C  0.75561002  0.28634804  0.65252684     0.00800
H1144       H  0.73431855  0.30052024  0.62631301     0.08400
H1145       H  0.76070487  0.28450745  0.66341540     0.07500
N1146       N  0.75577616  0.25692761  0.59010404    -0.36300
N1147       N  0.76361472  0.24422683  0.59072916    -0.28500
C1148       C  0.76574124  0.23899248  0.57669845    -0.03800
C1149       C  0.75888159  0.24873483  0.56668860     0.04900
C1150       C  0.75261858  0.25994398  0.57558782     0.02900
H1151       H  0.77200097  0.22888043  0.57401289     0.08000
H1152       H  0.74673402  0.26990807  0.57176292     0.06900
C1153       C  0.28605576  0.22839957  0.86831440     0.86300
C1154       C  0.28084709  0.21513913  0.85846860    -0.54000
C1155       C  0.29194892  0.20539409  0.85427962     0.09200
C1156       C  0.30730532  0.20918052  0.86116990     0.20100
C1157       C  0.29340051  0.22068287  0.88219160    -0.54700
C1158       C  0.30452847  0.21048608  0.87818573     0.09300
C1159       C  0.29956949  0.23527214  0.85982741    -0.54200
C1160       C  0.31073988  0.22536068  0.85611230     0.09900
H1161       H  0.26933074  0.21408176  0.85440735     0.14400
H1162       H  0.31625354  0.20091962  0.85832504     0.00100
H1163       H  0.29032863  0.22301920  0.89378083     0.14700
H1164       H  0.29991911  0.24709425  0.85673073     0.14500
N1165       N  0.25254530  0.11701192  0.72603920    -0.27500
N1166       N  0.24936959  0.12720523  0.73635101    -0.35400
C1167       C  0.24299905  0.13922215  0.72983480     0.00800
C1168       C  0.24206550  0.13661827  0.71452449     0.06900
C1169       C  0.24829903  0.12236694  0.71247045    -0.06200
H1170       H  0.24011961  0.14947474  0.73575821     0.07500
H1171       H  0.24986489  0.11646731  0.70193645     0.08700
Cu1172     Cu  0.25632558  0.12548329  0.75827291     0.44200
Cu1173     Cu  0.26284036  0.09689391  0.73231829     0.42000
Cu1174     Cu  0.28012534  0.09597211  0.77111902     0.43900
N1175       N  0.26914418  0.12700308  0.77739518    -0.34900
N1176       N  0.27861893  0.11663371  0.78223813    -0.29100
C1177       C  0.28615325  0.12222250  0.79422471    -0.05200
C1178       C  0.28115298  0.13689413  0.79685321     0.07000
C1179       C  0.27031207  0.13933541  0.78591081     0.00800
H1180       H  0.29476937  0.11616951  0.80035043     0.08400
H1181       H  0.26377564  0.14939816  0.78390436     0.07500
N1182       N  0.27613587  0.07726732  0.75738891    -0.36300
N1183       N  0.27003299  0.07770050  0.74378144    -0.28500
C1184       C  0.26767937  0.06353319  0.73901120    -0.03800
C1185       C  0.27245791  0.05361770  0.75005580     0.04900
C1186       C  0.27785111  0.06276178  0.76149942     0.02900
H1187       H  0.26237849  0.06073154  0.72842270     0.08000
H1188       H  0.28193791  0.05918542  0.77239491     0.06900
C1189       C  0.22122006  0.22934557  0.65093310     0.86300
C1190       C  0.22665810  0.21710427  0.66199209    -0.54000
C1191       C  0.21548624  0.20806460  0.66740369     0.09200
C1192       C  0.19981387  0.21186049  0.66137490     0.20100
C1193       C  0.21287091  0.22025699  0.63848083    -0.54700
C1194       C  0.20167102  0.21098354  0.64419276     0.09300
C1195       C  0.20840061  0.23761648  0.65916441    -0.54200
C1196       C  0.19734905  0.22860329  0.66494111     0.09900
H1197       H  0.23839688  0.21570235  0.66523582     0.14400
H1198       H  0.19093992  0.20427134  0.66592042     0.00100
H1199       H  0.21575550  0.22062522  0.62661897     0.14700
H1200       H  0.20832792  0.24977940  0.66041048     0.14500
C1201       C  0.22309645  0.29463812  0.87496596     0.86300
C1202       C  0.23161745  0.30645620  0.86553630    -0.54000
C1203       C  0.22285791  0.31758736  0.85963762     0.09200
C1204       C  0.20618436  0.31612351  0.86399037     0.20100
C1205       C  0.21501685  0.30417721  0.88727837    -0.54700
C1206       C  0.20607515  0.31544902  0.88125562     0.09300
C1207       C  0.21007440  0.28914389  0.86484677    -0.54200
C1208       C  0.20147291  0.30035074  0.85895884     0.09900
H1209       H  0.24373329  0.30589340  0.86370536     0.14400
H1210       H  0.19881958  0.32505059  0.85923544     0.00100
H1211       H  0.21600808  0.30219731  0.89928023     0.14700
H1212       H  0.20827333  0.27737946  0.86199787     0.14500
N1213       N  0.11219777  0.26977749  0.79346160    -0.27500
N1214       N  0.12239949  0.27355232  0.78328507    -0.35400
C1215       C  0.13505711  0.27810108  0.79020859     0.00800
C1216       C  0.13285439  0.27711410  0.80560867     0.06900
C1217       C  0.11817608  0.27177466  0.80725783    -0.06200
H1218       H  0.14536879  0.28109769  0.78438933     0.07500
H1219       H  0.11234859  0.26927723  0.81767834     0.08700
Cu1220     Cu  0.11974672  0.26965574  0.76061974     0.44200
Cu1221     Cu  0.09112493  0.26128874  0.78731383     0.42000
Cu1222     Cu  0.08963884  0.24548562  0.74881978     0.43900
N1223       N  0.11954590  0.25862466  0.74026450    -0.34900
N1224       N  0.10907499  0.24896368  0.73599840    -0.29100
C1225       C  0.11370245  0.24220915  0.72318235    -0.05200
C1226       C  0.12781964  0.24794396  0.71926682     0.07000
C1227       C  0.13101931  0.25834476  0.73044569     0.00800
H1228       H  0.10745554  0.23346447  0.71745778     0.08400
H1229       H  0.14131321  0.26467504  0.73201220     0.07500
N1230       N  0.07112831  0.24738381  0.76326537    -0.36300
N1231       N  0.07153024  0.25347173  0.77686456    -0.28500
C1232       C  0.05732669  0.25443545  0.78225069    -0.03800
C1233       C  0.04748774  0.24860267  0.77160952     0.04900
C1234       C  0.05670388  0.24418344  0.75977287     0.02900
H1235       H  0.05438438  0.25928448  0.79303195     0.08000
H1236       H  0.05313593  0.23966912  0.74904712     0.06900
C1237       C  0.28775932  0.29258729  0.65618089     0.86300
C1238       C  0.28275655  0.30698525  0.66451195    -0.54000
C1239       C  0.29409860  0.31674350  0.66798492     0.09200
C1240       C  0.30963665  0.31129719  0.66259285     0.20100
C1241       C  0.29617902  0.29873619  0.64199200    -0.54700
C1242       C  0.30781873  0.30853595  0.64562297     0.09300
C1243       C  0.30051138  0.28584134  0.66581700    -0.54200
C1244       C  0.31192826  0.29550666  0.66910888     0.09900
H1245       H  0.27108272  0.30906677  0.66766894     0.14400
H1246       H  0.31892534  0.31924332  0.66528538     0.00100
H1247       H  0.29355981  0.29550959  0.63052085     0.14700
H1248       H  0.30054629  0.27417952  0.66954790     0.14500
N1249       N  0.40097604  0.26817322  0.73299637    -0.27500
N1250       N  0.39221365  0.27315045  0.74397507    -0.35400
C1251       C  0.38057099  0.28074397  0.73807792     0.00800
C1252       C  0.38190765  0.28041788  0.72261393     0.06900
C1253       C  0.39492589  0.27226221  0.71969419    -0.06200
H1254       H  0.37126957  0.28530757  0.74454638     0.07500
H1255       H  0.39954312  0.26939227  0.70878270     0.08700
Cu1256     Cu  0.39422045  0.26663746  0.76613301     0.44200
Cu1257     Cu  0.42055096  0.25614302  0.73743170     0.42000
Cu1258     Cu  0.41946614  0.23630253  0.77346350     0.43900
N1259       N  0.39198848  0.25244777  0.78435086    -0.34900
N1260       N  0.40045320  0.24037790  0.78639091    -0.29100
C1261       C  0.39441740  0.23197797  0.79749327    -0.05200
C1262       C  0.38163269  0.23928112  0.80273696     0.07000
C1263       C  0.38047232  0.25221213  0.79417078     0.00800
H1264       H  0.39879017  0.22122370  0.80119776     0.08400
H1265       H  0.37129447  0.26025547  0.79426898     0.07500
N1266       N  0.43887093  0.23960063  0.76086082    -0.36300
N1267       N  0.43938428  0.24711835  0.74801371    -0.28500
C1268       C  0.45391858  0.24925704  0.74412762    -0.03800
C1269       C  0.46299115  0.24271719  0.75501480     0.04900
C1270       C  0.45302523  0.23663969  0.76539305     0.02900
H1271       H  0.45757254  0.25556272  0.73435545     0.08000
H1272       H  0.45582617  0.23132748  0.77598579     0.06900
N1273       N  0.24422826  0.40467087  0.78818567    -0.27500
N1274       N  0.25612072  0.39598845  0.78592852    -0.35400
C1275       C  0.25611864  0.38486803  0.79613286     0.00800
C1276       C  0.24354634  0.38645972  0.80534025     0.06900
C1277       C  0.23630159  0.39925863  0.79996895    -0.06200
H1278       H  0.26444562  0.37597647  0.79632612     0.07500
H1279       H  0.22575155  0.40397899  0.80389853     0.08700
Cu1280     Cu  0.27049593  0.39767074  0.76762414     0.44200
Cu1281     Cu  0.23939326  0.42295182  0.77447007     0.42000
Cu1282     Cu  0.26001866  0.42355576  0.73875036     0.43900
N1283       N  0.27851148  0.39611021  0.74580476    -0.34900
N1284       N  0.27370826  0.40490233  0.73481080    -0.29100
C1285       C  0.27825366  0.39906499  0.72156127    -0.05200
C1286       C  0.28649315  0.38609613  0.72441899     0.07000
C1287       C  0.28646566  0.38463639  0.73991665     0.00800
H1288       H  0.27516865  0.40350616  0.71065064     0.08400
H1289       H  0.29062620  0.37514427  0.74632578     0.07500
N1290       N  0.24769547  0.44166096  0.74721256    -0.36300
N1291       N  0.24009601  0.44132432  0.76003573    -0.28500
C1292       C  0.23458657  0.45513655  0.76289389    -0.03800
C1293       C  0.23896931  0.46477618  0.75138256     0.04900
C1294       C  0.24723437  0.45573953  0.74161342     0.02900
H1295       H  0.22855684  0.45804628  0.77307837     0.08000
H1296       H  0.25300281  0.45917985  0.73144007     0.06900
N1297       N  0.89395225  0.40376173  0.95120366    -0.27500
N1298       N  0.90800634  0.39966424  0.95406894    -0.35400
C1299       C  0.91021895  0.39981920  0.96907182     0.00800
C1300       C  0.89694526  0.40432520  0.97609594     0.06900
C1301       C  0.88690315  0.40676127  0.96433592    -0.06200
H1302       H  0.92083292  0.39712959  0.97443675     0.07500
H1303       H  0.87523865  0.41026199  0.96524693     0.08700
Cu1304     Cu  0.92374648  0.39495175  0.93724425     0.44200
Cu1305     Cu  0.88505164  0.40465978  0.92939118     0.42000
Cu1306     Cu  0.91122803  0.40035355  0.89824723     0.43900
N1307       N  0.93815523  0.39440223  0.91867414    -0.34900
N1308       N  0.93381066  0.39710696  0.90467841    -0.29100
C1309       C  0.94619002  0.39807510  0.89586152    -0.05200
C1310       C  0.95891292  0.39571164  0.90466145     0.07000
C1311       C  0.95332682  0.39333336  0.91903991     0.00800
H1312       H  0.94597584  0.40078283  0.88398888     0.08400
H1313       H  0.95987371  0.39201571  0.92922307     0.07500
N1314       N  0.88779674  0.40255354  0.89531964    -0.36300
N1315       N  0.87833511  0.40383595  0.90679893    -0.28500
C1316       C  0.86408174  0.40372221  0.90153791    -0.03800
C1317       C  0.86443068  0.40243154  0.88595572     0.04900
C1318       C  0.87972828  0.40178514  0.88243299     0.02900
H1319       H  0.85413510  0.40418742  0.90861297     0.08000
H1320       H  0.88459888  0.40006754  0.87138720     0.06900
N1321       N  0.89170107  0.44119750  0.13865795    -0.27500
N1322       N  0.88828685  0.44528150  0.12473973    -0.35400
C1323       C  0.88782954  0.46037964  0.12387518     0.00800
C1324       C  0.89126719  0.46637058  0.13781343     0.06900
C1325       C  0.89374566  0.45383239  0.14694843    -0.06200
H1326       H  0.88588928  0.46657358  0.11356722     0.07500
H1327       H  0.89693268  0.45390720  0.15869452     0.08700
Cu1328     Cu  0.88631188  0.43083020  0.10648535     0.44200
Cu1329     Cu  0.89350456  0.41832569  0.14516557     0.42000
Cu1330     Cu  0.89394076  0.39232505  0.11278761     0.43900
N1331       N  0.88873445  0.41566736  0.08886564    -0.34900
N1332       N  0.89227342  0.40140540  0.09115854    -0.29100
C1333       C  0.89464662  0.39472700  0.07773794    -0.05200
C1334       C  0.89236003  0.40528670  0.06641414     0.07000
C1335       C  0.88856589  0.41843010  0.07395104     0.00800
H1336       H  0.89795837  0.38308478  0.07633137     0.08400
H1337       H  0.88656722  0.42938098  0.06899642     0.07500
N1338       N  0.89378243  0.38545845  0.13529271    -0.36300
N1339       N  0.89365474  0.39455820  0.14710043    -0.28500
C1340       C  0.89297136  0.38603130  0.15972525    -0.03800
C1341       C  0.89256760  0.37085562  0.15568735     0.04900
C1342       C  0.89313864  0.37109140  0.14006675     0.02900
H1343       H  0.89233389  0.39057145  0.17100440     0.08000
H1344       H  0.89293479  0.36150726  0.13256962     0.06900
N1345       N  0.12443015  0.62341333  0.94609608    -0.27500
N1346       N  0.12720910  0.60904559  0.94870733    -0.35400
C1347       C  0.12851998  0.60688208  0.96364834     0.00800
C1348       C  0.12638280  0.62058515  0.97084546     0.06900
C1349       C  0.12382221  0.63080410  0.95929881    -0.06200
H1350       H  0.13037385  0.59603933  0.96888338     0.07500
H1351       H  0.12159769  0.64273304  0.96037762     0.08700
Cu1352     Cu  0.12798985  0.59323041  0.93156637     0.44200
Cu1353     Cu  0.12131317  0.63189737  0.92453833     0.42000
Cu1354     Cu  0.12133409  0.60588718  0.89264644     0.43900
N1355       N  0.12639332  0.57891683  0.91319954    -0.34900
N1356       N  0.12358460  0.58315668  0.89919366    -0.29100
C1357       C  0.12215428  0.57066670  0.89062525    -0.05200
C1358       C  0.12428029  0.55802101  0.89966513     0.07000
C1359       C  0.12695987  0.56380638  0.91386816     0.00800
H1360       H  0.11956778  0.57078471  0.87873310     0.08400
H1361       H  0.12853893  0.55748997  0.92415973     0.07500
N1362       N  0.11966116  0.62948104  0.89045052    -0.36300
N1363       N  0.11950479  0.63860951  0.90221014    -0.28500
C1364       C  0.11895119  0.65294541  0.89742368    -0.03800
C1365       C  0.11882707  0.65314488  0.88180001     0.04900
C1366       C  0.11923351  0.63795406  0.87779701     0.02900
H1367       H  0.11904050  0.66251052  0.90493751     0.08000
H1368       H  0.11974921  0.63338937  0.86652330     0.06900
N1369       N  0.89983598  0.58123215  0.13397757    -0.27500
N1370       N  0.91384736  0.57700515  0.13696934    -0.35400
C1371       C  0.91422598  0.56195847  0.13889087     0.00800
C1372       C  0.89981501  0.55623904  0.13689677     0.06900
C1373       C  0.89099632  0.56883223  0.13372947    -0.06200
H1374       H  0.92440597  0.55557585  0.14101019     0.07500
H1375       H  0.87901843  0.56896589  0.13137995     0.08700
Cu1376     Cu  0.93234859  0.59147305  0.13712805     0.44200
Cu1377     Cu  0.89349093  0.60388644  0.13046996     0.42000
Cu1378     Cu  0.92529083  0.63029457  0.12882458     0.43900
N1379       N  0.94961230  0.60717938  0.13456625    -0.34900
N1380       N  0.94713498  0.62142757  0.13104066    -0.29100
C1381       C  0.96056303  0.62838256  0.12917408    -0.05200
C1382       C  0.97207622  0.61802888  0.13175524     0.07000
C1383       C  0.96460916  0.60472296  0.13517805     0.00800
H1384       H  0.96184151  0.64009912  0.12608792     0.08400
H1385       H  0.96969283  0.59387069  0.13739426     0.07500
N1386       N  0.90252085  0.63681252  0.12811999    -0.36300
N1387       N  0.89089202  0.62745429  0.12864504    -0.28500
C1388       C  0.87799417  0.63565165  0.12870937    -0.03800
C1389       C  0.88163146  0.65092813  0.12830814     0.04900
C1390       C  0.89733853  0.65106215  0.12788291     0.02900
H1391       H  0.86680274  0.63084936  0.12959718     0.08000
H1392       H  0.90461460  0.66083678  0.12770708     0.06900
N1393       N  0.08788712  0.61755058  0.13029915    -0.27500
N1394       N  0.08443509  0.62171979  0.11641935    -0.35400
C1395       C  0.06935796  0.62186023  0.11477535     0.00800
C1396       C  0.06273691  0.61750525  0.12819213     0.06900
C1397       C  0.07486198  0.61475624  0.13779476    -0.06200
H1398       H  0.06364474  0.62462093  0.10438446     0.07500
H1399       H  0.07423760  0.61120847  0.14943130     0.08700
Cu1400     Cu  0.09988677  0.62604598  0.09948044     0.44200
Cu1401     Cu  0.11045797  0.61639783  0.13810186     0.42000
Cu1402     Cu  0.13841359  0.61957424  0.10754038     0.43900
N1403       N  0.11619157  0.62545689  0.08282116    -0.34900
N1404       N  0.13045416  0.62215889  0.08559548    -0.29100
C1405       C  0.13780693  0.62053969  0.07238346    -0.05200
C1406       C  0.12765658  0.62315149  0.06078244     0.07000
C1407       C  0.11409054  0.62628488  0.06786474     0.00800
H1408       H  0.14957283  0.61744101  0.07129543     0.08400
H1409       H  0.10327556  0.62812123  0.06253035     0.07500
N1410       N  0.14389596  0.61853550  0.13037698    -0.36300
N1411       N  0.13411129  0.61730693  0.14160603    -0.28500
C1412       C  0.14187848  0.61754641  0.15473785    -0.03800
C1413       C  0.15725289  0.61911973  0.15162260     0.04900
C1414       C  0.15792772  0.61965185  0.13601256     0.02900
H1415       H  0.13667680  0.61714967  0.16575998     0.08000
H1416       H  0.16791798  0.62095027  0.12911628     0.06900
N1417       N  0.07371301  0.40078967  0.89406583    -0.27500
N1418       N  0.07004280  0.41500261  0.89162211    -0.35400
C1419       C  0.05488208  0.41632601  0.89208104     0.00800
C1420       C  0.04868211  0.40226838  0.89510148     0.06900
C1421       C  0.06102769  0.39271994  0.89628301    -0.06200
H1422       H  0.04886010  0.42686340  0.89095391     0.07500
H1423       H  0.06084273  0.38078712  0.89873530     0.08700
Cu1424     Cu  0.08622850  0.43194436  0.88948600     0.44200
Cu1425     Cu  0.09595739  0.39327324  0.89485266     0.42000
Cu1426     Cu  0.12610681  0.42074794  0.89508409     0.43900
N1427       N  0.10420498  0.44703083  0.89124574    -0.34900
N1428       N  0.11837460  0.44314522  0.89402779    -0.29100
C1429       C  0.12656964  0.45579319  0.89608110    -0.05200
C1430       C  0.11720218  0.46820143  0.89427031     0.07000
C1431       C  0.10313597  0.46216765  0.89117354     0.00800
H1432       H  0.13847674  0.45595263  0.89877063     0.08400
H1433       H  0.09270918  0.46832908  0.88966892     0.07500
N1434       N  0.12998024  0.39736147  0.89532628    -0.36300
N1435       N  0.11875059  0.38755518  0.89523592    -0.28500
C1436       C  0.12441927  0.37352218  0.89516037    -0.03800
C1437       C  0.14009405  0.37426250  0.89517994     0.04900
C1438       C  0.14317731  0.38967682  0.89530966     0.02900
H1439       H  0.11747063  0.36351802  0.89504013     0.08000
H1440       H  0.15418799  0.39494212  0.89512453     0.06900
C1441       C  0.98869772  0.62028020  0.13013850    -0.05500
C1442       C  0.99437638  0.63148265  0.12047229    -0.05400
C1443       C  0.00994215  0.63314652  0.11822535    -0.23500
C1444       C  0.02021209  0.62380153  0.12578867     0.18700
C1445       C  0.01472523  0.61278440  0.13588763     0.15900
C1446       C  0.99901703  0.61099129  0.13788762    -0.18600
C1447       C  0.02506813  0.60373391  0.14375410    -0.20400
C1448       C  0.04066318  0.60548057  0.14152673    -0.13000
C1449       C  0.04623081  0.61612164  0.13120028     0.03700
C1450       C  0.03586473  0.62527467  0.12338657    -0.25100
H1451       H  0.98676103  0.63874386  0.11431157     0.08800
H1452       H  0.01394632  0.64171407  0.11049755     0.12400
H1453       H  0.99484528  0.60243028  0.14553492     0.12300
H1454       H  0.02109591  0.59526282  0.15160217     0.12100
H1455       H  0.04836680  0.59825213  0.14762390     0.12600
H1456       H  0.03997801  0.63366864  0.11552342     0.14600
C1457       C  0.12264852  0.54180045  0.89568223    -0.05500
C1458       C  0.11359069  0.53734435  0.88350019    -0.05400
C1459       C  0.11088597  0.52205874  0.88063848    -0.23500
C1460       C  0.11736121  0.51089556  0.88977628     0.18700
C1461       C  0.12703388  0.51520531  0.90164393     0.15900
C1462       C  0.12952665  0.53058649  0.90457845    -0.18600
C1463       C  0.13389075  0.50404792  0.91050426    -0.20400
C1464       C  0.13100554  0.48878072  0.90779749    -0.13000
C1465       C  0.12097505  0.48436891  0.89639570     0.03700
C1466       C  0.11422075  0.49552289  0.88736470    -0.25100
H1467       H  0.10815443  0.54568583  0.87646720     0.08800
H1468       H  0.10356120  0.51897577  0.87138772     0.12400
H1469       H  0.13676149  0.53380553  0.91385151     0.12300
H1470       H  0.14139764  0.50712943  0.91960829     0.12100
H1471       H  0.13627982  0.48041211  0.91492989     0.12600
H1472       H  0.10658572  0.49222321  0.87843475     0.14600
C1473       C  0.12592810  0.62350331  0.98730091    -0.05500
C1474       C  0.11768538  0.63578910  0.99297980    -0.05400
C1475       C  0.11660749  0.63828843  0.00847263    -0.23500
C1476       C  0.12392539  0.62866771  0.01861581     0.18700
C1477       C  0.13264600  0.61653727  0.01306762     0.15900
C1478       C  0.13346264  0.61393377  0.99745972    -0.18600
C1479       C  0.14031254  0.60718589  0.02325300    -0.20400
C1480       C  0.13914129  0.60968485  0.03877577    -0.13000
C1481       C  0.13004715  0.62137018  0.04438221     0.03700
C1482       C  0.12253583  0.63088764  0.03421456    -0.25100
H1483       H  0.11172255  0.64330137  0.98546117     0.08800
H1484       H  0.10995621  0.64769947  0.01252417     0.12400
H1485       H  0.14002816  0.60453758  0.99324188     0.12300
H1486       H  0.14710928  0.59787132  0.01922491     0.12100
H1487       H  0.14493798  0.60216319  0.04642618     0.12600
H1488       H  0.11560430  0.64001641  0.03846431     0.14600
C1489       C  0.89526392  0.54005305  0.13689569    -0.05500
C1490       C  0.88330816  0.53514183  0.12775533    -0.05400
C1491       C  0.87974412  0.51981562  0.12666541    -0.23500
C1492       C  0.88791771  0.50905449  0.13486965     0.18700
C1493       C  0.89950325  0.51384473  0.14465997     0.15900
C1494       C  0.90320650  0.52929225  0.14550564    -0.18600
C1495       C  0.90735421  0.50304068  0.15317735    -0.20400
C1496       C  0.90417700  0.48762908  0.15154636    -0.13000
C1497       C  0.89324657  0.48270206  0.14121474     0.03700
C1498       C  0.88493855  0.49357066  0.13315119    -0.25100
H1499       H  0.87701901  0.54311312  0.12100562     0.08800
H1500       H  0.87073690  0.51635477  0.11919271     0.12400
H1501       H  0.91231313  0.53291677  0.15278000     0.12300
H1502       H  0.91617342  0.50648481  0.16087405     0.12100
H1503       H  0.91072928  0.47953403  0.15789098     0.12600
H1504       H  0.87629639  0.48996191  0.12532277     0.14600
C1505       C  0.89414365  0.40616227  0.99256084    -0.05500
C1506       C  0.88259154  0.41570897  0.99779672    -0.05400
C1507       C  0.88000987  0.41759115  0.01325444    -0.23500
C1508       C  0.88877844  0.40978534  0.02383745     0.18700
C1509       C  0.90024244  0.39995011  0.01872689     0.15900
C1510       C  0.90296550  0.39834315  0.00317978    -0.18600
C1511       C  0.90873980  0.39180343  0.02926170    -0.20400
C1512       C  0.90593926  0.39337346  0.04469069    -0.13000
C1513       C  0.89479988  0.40334339  0.04995677     0.03700
C1514       C  0.88626440  0.41158287  0.03941874    -0.25100
H1515       H  0.87566056  0.42193120  0.98993675     0.08800
H1516       H  0.87111760  0.42512996  0.01692608     0.12400
H1517       H  0.91178450  0.39078780  0.99936783     0.12300
H1518       H  0.91755115  0.38417868  0.02556759     0.12100
H1519       H  0.91274693  0.38700016  0.05254645     0.12600
H1520       H  0.87754468  0.41920673  0.04333298     0.14600
C1521       C  0.97498790  0.39781849  0.90032646    -0.05500
C1522       C  0.97900613  0.40909710  0.88996958    -0.05400
C1523       C  0.99418893  0.41214616  0.88680455    -0.23500
C1524       C  0.00567605  0.40375987  0.89370456     0.18700
C1525       C  0.00177106  0.39194741  0.90366007     0.15900
C1526       C  0.98646627  0.38917946  0.90706740    -0.18600
C1527       C  0.01326302  0.38324568  0.91015850    -0.20400
C1528       C  0.02845305  0.38641042  0.90708669    -0.13000
C1529       C  0.03249986  0.39849073  0.89765084     0.03700
C1530       C  0.02098377  0.40707129  0.89091386    -0.25100
H1531       H  0.97039364  0.41595128  0.88470187     0.08800
H1532       H  0.99694713  0.42117653  0.87906371     0.12400
H1533       H  0.98347772  0.38034855  0.91496073     0.12300
H1534       H  0.01051265  0.37405854  0.91771422     0.12100
H1535       H  0.03705230  0.37962390  0.91244759     0.12600
H1536       H  0.02392179  0.41627114  0.88343806     0.14600
C1537       C  0.29143139  0.33124764  0.67604999    -0.05500
C1538       C  0.27802949  0.33942277  0.67366014    -0.05400
C1539       C  0.27497096  0.35249762  0.68186747    -0.23500
C1540       C  0.28513107  0.35758157  0.69280719     0.18700
C1541       C  0.29877040  0.34964730  0.69515223     0.15900
C1542       C  0.30190511  0.33675627  0.68655032    -0.18600
C1543       C  0.30870106  0.35444144  0.70646606    -0.20400
C1544       C  0.30487095  0.36657344  0.71575869    -0.13000
C1545       C  0.29129016  0.37442558  0.71357065     0.03700
C1546       C  0.28163804  0.37010724  0.70181923    -0.25100
H1547       H  0.26986263  0.33568354  0.66542115     0.08800
H1548       H  0.26446003  0.35845110  0.67989106     0.12400
H1549       H  0.31237178  0.33059709  0.68858851     0.12300
H1550       H  0.31921668  0.34848531  0.70845218     0.12100
H1551       H  0.31242319  0.36974466  0.72478644     0.12600
H1552       H  0.27100930  0.37596913  0.70024153     0.14600
C1553       C  0.37061587  0.28623834  0.71200082    -0.05500
C1554       C  0.36410550  0.30038365  0.71470186    -0.05400
C1555       C  0.35189787  0.30531605  0.70617083    -0.23500
C1556       C  0.34572095  0.29598636  0.69508889     0.18700
C1557       C  0.35234156  0.28178899  0.69208528     0.15900
C1558       C  0.36500077  0.27712504  0.70037584    -0.18600
C1559       C  0.34577151  0.27232452  0.68129857    -0.20400
C1560       C  0.33259303  0.27673417  0.67385900    -0.13000
C1561       C  0.32590290  0.29077992  0.67692751     0.03700
C1562       C  0.33274020  0.30038439  0.68734440    -0.25100
H1563       H  0.36831491  0.30749503  0.72366371     0.08800
H1564       H  0.34693767  0.31623536  0.70860757     0.12400
H1565       H  0.36987036  0.26608029  0.69844609     0.12300
H1566       H  0.35067007  0.26140369  0.67880982     0.12100
H1567       H  0.32768534  0.26922768  0.66560965     0.12600
H1568       H  0.32758569  0.31126987  0.68990525     0.14600
C1569       C  0.22888955  0.32939732  0.84939299    -0.05500
C1570       C  0.24115908  0.32609349  0.83987252    -0.05400
C1571       C  0.24671110  0.33683463  0.82988111    -0.23500
C1572       C  0.23998821  0.35105954  0.82901660     0.18700
C1573       C  0.22768412  0.35463388  0.83849519     0.15900
C1574       C  0.22225553  0.34380181  0.84872324    -0.18600
C1575       C  0.22094103  0.36889598  0.83738125    -0.20400
C1576       C  0.22616952  0.37935934  0.82676146    -0.13000
C1577       C  0.23831444  0.37579143  0.81715560     0.03700
C1578       C  0.24524352  0.36161714  0.81855790    -0.25100
H1579       H  0.24630803  0.31504296  0.83983387     0.08800
H1580       H  0.25611444  0.33390507  0.82262070     0.12400
H1581       H  0.21293802  0.34662018  0.85612276     0.12300
H1582       H  0.21151044  0.37188594  0.84457390     0.12100
H1583       H  0.22064718  0.39020225  0.82606464     0.12600
H1584       H  0.25452789  0.35850169  0.81126956     0.14600
C1585       C  0.18961956  0.29762305  0.84763720    -0.05500
C1586       C  0.19065873  0.30466105  0.83354793    -0.05400
C1587       C  0.17985945  0.30186604  0.82246993    -0.23500
C1588       C  0.16765394  0.29224069  0.82545744     0.18700
C1589       C  0.16635923  0.28532274  0.83974398     0.15900
C1590       C  0.17749191  0.28789776  0.85070348    -0.18600
C1591       C  0.15392582  0.27601471  0.84280240    -0.20400
C1592       C  0.14291493  0.27352662  0.83180306    -0.13000
C1593       C  0.14422863  0.28013989  0.81747847     0.03700
C1594       C  0.15668920  0.28949902  0.81441526    -0.25100
H1595       H  0.20002103  0.31211376  0.83103351     0.08800
H1596       H  0.18102237  0.30727276  0.81159011     0.12400
H1597       H  0.17665333  0.28254307  0.86164630     0.12300
H1598       H  0.15270876  0.27066390  0.85370364     0.12100
H1599       H  0.13351184  0.26619581  0.83444639     0.12600
H1600       H  0.15778562  0.29484261  0.80350097     0.14600
C1601       C  0.19632466  0.32620238  0.88955435    -0.05500
C1602       C  0.20204221  0.34038913  0.89358011    -0.05400
C1603       C  0.19224033  0.35249365  0.89648974    -0.23500
C1604       C  0.17652485  0.35069082  0.89510370     0.18700
C1605       C  0.17071248  0.33628674  0.89160528     0.15900
C1606       C  0.18061197  0.32416885  0.88894582    -0.18600
C1607       C  0.15511743  0.33439330  0.88997850    -0.20400
C1608       C  0.14535045  0.34666578  0.89137958    -0.13000
C1609       C  0.15085595  0.36123353  0.89446746     0.03700
C1610       C  0.16657123  0.36308523  0.89653107    -0.25100
H1611       H  0.21411293  0.34235744  0.89348126     0.08800
H1612       H  0.19698371  0.36343180  0.89908746     0.12400
H1613       H  0.17614226  0.31341603  0.88524629     0.12300
H1614       H  0.15046284  0.32343774  0.88726894     0.12100
H1615       H  0.13344663  0.34466003  0.88966004     0.12600
H1616       H  0.17110023  0.37413830  0.89899603     0.14600
C1617       C  0.18503183  0.23453477  0.67476016    -0.05500
C1618       C  0.18765634  0.24742762  0.68359686    -0.05400
C1619       C  0.17658578  0.25297762  0.69322812    -0.23500
C1620       C  0.16270666  0.24560154  0.69454238     0.18700
C1621       C  0.15976450  0.23265104  0.68581919     0.15900
C1622       C  0.17092016  0.22723899  0.67585033    -0.18600
C1623       C  0.14583100  0.22525863  0.68748497    -0.20400
C1624       C  0.13520768  0.23037023  0.69806583    -0.13000
C1625       C  0.13826296  0.24306695  0.70704411     0.03700
C1626       C  0.15193628  0.25081371  0.70482134    -0.25100
H1627       H  0.19846410  0.25310094  0.68345002     0.08800
H1628       H  0.17904552  0.26285816  0.69995322     0.12400
H1629       H  0.16861011  0.21739045  0.66904651     0.12300
H1630       H  0.14329106  0.21533352  0.68086639     0.12100
H1631       H  0.12477276  0.22417635  0.69940316     0.12600
H1632       H  0.15449801  0.26079642  0.71129760     0.14600
C1633       C  0.27461933  0.28118638  0.65547393    -0.05500
C1634       C  0.26809035  0.27743272  0.66949801    -0.05400
C1635       C  0.25676327  0.26675866  0.67080372    -0.23500
C1636       C  0.25146219  0.25923991  0.65812156     0.18700
C1637       C  0.25744246  0.26262905  0.64377010     0.15900
C1638       C  0.26911084  0.27370559  0.64244111    -0.18600
C1639       C  0.25158579  0.25472080  0.63125475    -0.20400
C1640       C  0.23998082  0.24382669  0.63305350    -0.13000
C1641       C  0.23409535  0.24052306  0.64744822     0.03700
C1642       C  0.24019859  0.24832565  0.65982182    -0.25100
H1643       H  0.27201693  0.28273662  0.67975297     0.08800
H1644       H  0.25222471  0.26428342  0.68187475     0.12400
H1645       H  0.27392907  0.27623141  0.63152456     0.12300
H1646       H  0.25591956  0.25699961  0.62007560     0.12100
H1647       H  0.23567648  0.23810011  0.62322040     0.12600
H1648       H  0.23590278  0.24596542  0.67102669     0.14600
C1649       C  0.21827840  0.19524366  0.67757159    -0.05500
C1650       C  0.21140110  0.19485584  0.69177661    -0.05400
C1651       C  0.21423955  0.18292811  0.70163295    -0.23500
C1652       C  0.22377743  0.17108139  0.69725015     0.18700
C1653       C  0.23022935  0.17107140  0.68268854     0.15900
C1654       C  0.22754418  0.18325697  0.67296065    -0.18600
C1655       C  0.23943319  0.15898911  0.67822545    -0.20400
C1656       C  0.24276787  0.14736435  0.68834775    -0.13000
C1657       C  0.23703370  0.14769384  0.70309814     0.03700
C1658       C  0.22721110  0.15942339  0.70732196    -0.25100
H1659       H  0.20408123  0.20397050  0.69534778     0.08800
H1660       H  0.20910872  0.18303524  0.71269980     0.12400
H1661       H  0.23257906  0.18343885  0.66183799     0.12300
H1662       H  0.24431435  0.15870497  0.66705100     0.12100
H1663       H  0.25032336  0.13844663  0.68480559     0.12600
H1664       H  0.22243178  0.15964917  0.71854283     0.14600
C1665       C  0.37020989  0.23372633  0.81342878    -0.05500
C1666       C  0.36598718  0.21849275  0.81352178    -0.05400
C1667       C  0.35367419  0.21369544  0.82215680    -0.23500
C1668       C  0.34561690  0.22403954  0.83100861     0.18700
C1669       C  0.35035412  0.23922618  0.83154603     0.15900
C1670       C  0.36252613  0.24398923  0.82266818    -0.18600
C1671       C  0.34263524  0.24948592  0.84069017    -0.20400
C1672       C  0.33005983  0.24486155  0.84894089    -0.13000
C1673       C  0.32472943  0.22994568  0.84797993     0.03700
C1674       C  0.33273988  0.21954010  0.83906828    -0.25100
H1675       H  0.37176350  0.21044271  0.80639198     0.08800
H1676       H  0.35028568  0.20197731  0.82169555     0.12400
H1677       H  0.36587123  0.25574050  0.82272592     0.12300
H1678       H  0.34627503  0.26111730  0.84140861     0.12100
H1679       H  0.32454463  0.25306270  0.85607430     0.12600
H1680       H  0.32879051  0.20806237  0.83795634     0.14600
C1681       C  0.28965268  0.19412661  0.84214754    -0.05500
C1682       C  0.28059259  0.19803412  0.82977922    -0.05400
C1683       C  0.27781831  0.18776222  0.81833034    -0.23500
C1684       C  0.28400891  0.17329815  0.81899138     0.18700
C1685       C  0.29347594  0.16920747  0.83108809     0.15900
C1686       C  0.29641222  0.17976190  0.84259738    -0.18600
C1687       C  0.29952600  0.15456969  0.83149812    -0.20400
C1688       C  0.29580789  0.14403380  0.82028905    -0.13000
C1689       C  0.28606944  0.14799492  0.80842967     0.03700
C1690       C  0.28056186  0.16283591  0.80778318    -0.25100
H1691       H  0.27566380  0.20916167  0.82888570     0.08800
H1692       H  0.27065402  0.19108963  0.80903485     0.12400
H1693       H  0.30351098  0.17668703  0.85202925     0.12300
H1694       H  0.30688984  0.15119047  0.84061121     0.12100
H1695       H  0.30035600  0.13275151  0.82107118     0.12600
H1696       H  0.27334502  0.16639980  0.79867210     0.14600
C1697       C  0.27337126  0.24023165  0.86938275    -0.05500
C1698       C  0.26782292  0.24535753  0.85540335    -0.05400
C1699       C  0.25671707  0.25622330  0.85442365    -0.23500
C1700       C  0.25080636  0.26271474  0.86740090     0.18700
C1701       C  0.25592732  0.25813091  0.88172087     0.15900
C1702       C  0.26725228  0.24668703  0.88271957    -0.18600
C1703       C  0.24967569  0.26535729  0.89449967    -0.20400
C1704       C  0.23878562  0.27700399  0.89292590    -0.13000
C1705       C  0.23390749  0.28154905  0.87852005     0.03700
C1706       C  0.24001572  0.27404402  0.86597092    -0.25100
H1707       H  0.27228056  0.24090893  0.84493799     0.08800
H1708       H  0.25290489  0.25973092  0.84337536     0.12400
H1709       H  0.27136991  0.24312719  0.89361284     0.12300
H1710       H  0.25334677  0.26216331  0.90567220     0.12100
H1711       H  0.23445116  0.28252296  0.90288592     0.12600
H1712       H  0.23654678  0.27741624  0.85475366     0.14600
C1713       C  0.53548525  0.25647121  0.75314982    -0.05500
C1714       C  0.52765800  0.26771060  0.74516943    -0.05400
C1715       C  0.51193091  0.26725435  0.74390473    -0.23500
C1716       C  0.50368308  0.25556110  0.75061355     0.18700
C1717       C  0.51136763  0.24430147  0.75881715     0.15900
C1718       C  0.52716537  0.24480331  0.76000034    -0.18600
C1719       C  0.50311908  0.23271301  0.76571825    -0.20400
C1720       C  0.48740792  0.23225262  0.76446788    -0.13000
C1721       C  0.47965394  0.24327773  0.75617897     0.03700
C1722       C  0.48789441  0.25493918  0.74927102    -0.25100
H1723       H  0.53365748  0.27682166  0.73971954     0.08800
H1724       H  0.50622718  0.27602627  0.73762272     0.12400
H1725       H  0.53289618  0.23612704  0.76636195     0.12300
H1726       H  0.50881746  0.22399288  0.77207763     0.12100
H1727       H  0.48133721  0.22312933  0.76984653     0.12600
H1728       H  0.48203924  0.26365400  0.74305165     0.14600
C1729       C  0.69241523  0.17067973  0.79133411    -0.05500
C1730       C  0.69656201  0.18062564  0.77973929    -0.05400
C1731       C  0.68602944  0.19065236  0.77373413    -0.23500
C1732       C  0.67115463  0.19082796  0.77917085     0.18700
C1733       C  0.66671403  0.18051620  0.79045287     0.15900
C1734       C  0.67740701  0.17057714  0.79652472    -0.18600
C1735       C  0.65174069  0.18057468  0.79569148    -0.20400
C1736       C  0.64140800  0.19115633  0.79020635    -0.13000
C1737       C  0.64595823  0.20189946  0.77953376     0.03700
C1738       C  0.66077048  0.20143123  0.77381265    -0.25100
H1739       H  0.70809384  0.18103181  0.77568545     0.08800
H1740       H  0.68959448  0.19847148  0.76505721     0.12400
H1741       H  0.67407415  0.16288493  0.80538619     0.12300
H1742       H  0.64812039  0.17266544  0.80426542     0.12100
H1743       H  0.63005950  0.19134456  0.79476577     0.12600
H1744       H  0.66431700  0.20951529  0.76536914     0.14600
C1745       C  0.72273561  0.17619517  0.83178348    -0.05500
C1746       C  0.71521989  0.19003858  0.83058615    -0.05400
C1747       C  0.71700613  0.20107347  0.84165341    -0.23500
C1748       C  0.72607771  0.19827515  0.85427840     0.18700
C1749       C  0.73338642  0.18419807  0.85576442     0.15900
C1750       C  0.73183581  0.17330475  0.84438739    -0.18600
C1751       C  0.74208117  0.18127341  0.86861769    -0.20400
C1752       C  0.74384091  0.19231641  0.87971222    -0.13000
C1753       C  0.73708727  0.20654464  0.87808092     0.03700
C1754       C  0.72802912  0.20934990  0.86538527    -0.25100
H1755       H  0.70807430  0.19235151  0.82097349     0.08800
H1756       H  0.71125192  0.21176090  0.84037054     0.12400
H1757       H  0.73741068  0.16248816  0.84545575     0.12300
H1758       H  0.74765648  0.17050565  0.87001409     0.12100
H1759       H  0.75091458  0.18986132  0.88932434     0.12600
H1760       H  0.72255040  0.22018013  0.86408774     0.14600
C1761       C  0.73096223  0.34531618  0.70249174    -0.05500
C1762       C  0.74377302  0.33660215  0.70591533    -0.05400
C1763       C  0.74913801  0.32583658  0.69585654    -0.23500
C1764       C  0.74172434  0.32336720  0.68219579     0.18700
C1765       C  0.72869601  0.33175779  0.67860092     0.15900
C1766       C  0.72335996  0.34268555  0.68879521    -0.18600
C1767       C  0.72132525  0.32904904  0.66486446    -0.20400
C1768       C  0.72677502  0.31803318  0.65490526    -0.13000
C1769       C  0.73969266  0.30957143  0.65851398     0.03700
C1770       C  0.74715259  0.31251059  0.67216294    -0.25100
H1771       H  0.74962784  0.33790685  0.71650671     0.08800
H1772       H  0.75906528  0.31935509  0.69882792     0.12400
H1773       H  0.71346641  0.34920474  0.68591736     0.12300
H1774       H  0.71130683  0.33537147  0.66187175     0.12100
H1775       H  0.72076407  0.31601727  0.64450849     0.12600
H1776       H  0.75729627  0.30640352  0.67510236     0.14600
C1777       C  0.69393813  0.34828389  0.73736401    -0.05500
C1778       C  0.69710652  0.33798437  0.74892821    -0.05400
C1779       C  0.68629832  0.32748422  0.75346938    -0.23500
C1780       C  0.67208121  0.32714789  0.74657889     0.18700
C1781       C  0.66862990  0.33758391  0.73509041     0.15900
C1782       C  0.67963698  0.34805619  0.73048037    -0.18600
C1783       C  0.65428742  0.33723044  0.72836636    -0.20400
C1784       C  0.64362478  0.32638376  0.73272641    -0.13000
C1785       C  0.64716169  0.31568314  0.74382580     0.03700
C1786       C  0.66136174  0.31637200  0.75087911    -0.25100
H1787       H  0.70811117  0.33780323  0.75421483     0.08800
H1788       H  0.68912118  0.31951589  0.76226589     0.12400
H1789       H  0.67707844  0.35604593  0.72161267     0.12300
H1790       H  0.65139717  0.34519645  0.71959138     0.12100
H1791       H  0.63279410  0.32611145  0.72711203     0.12600
H1792       H  0.66419582  0.30844777  0.75969868     0.14600
C1793       C  0.97469842  0.25868237  0.78039526    -0.05500
C1794       C  0.98271444  0.26920982  0.78910780    -0.05400
C1795       C  0.99851267  0.26909312  0.78944756    -0.23500
C1796       C  0.00666487  0.25854158  0.78095443     0.18700
C1797       C  0.99876904  0.24796306  0.77206838     0.15900
C1798       C  0.98287733  0.24801748  0.77193844    -0.18600
C1799       C  0.00691384  0.23760225  0.76333631    -0.20400
C1800       C  0.02270679  0.23779501  0.76329357    -0.13000
C1801       C  0.03071110  0.24821828  0.77212064     0.03700
C1802       C  0.02256111  0.25850531  0.78105137    -0.25100
H1803       H  0.97677961  0.27747958  0.79582667     0.08800
H1804       H  0.00435622  0.27731665  0.79631095     0.12400
H1805       H  0.97692087  0.23992960  0.76501785     0.12300
H1806       H  0.00106791  0.22940938  0.75643739     0.12100
H1807       H  0.02866533  0.22968421  0.75639658     0.12600
H1808       H  0.02855132  0.26673538  0.78777707     0.14600
C1809       C  0.82889760  0.16196558  0.74285704    -0.05500
C1810       C  0.84220165  0.16224835  0.73416898    -0.05400
C1811       C  0.85408450  0.17193900  0.73780477    -0.23500
C1812       C  0.85282987  0.18174187  0.75008976     0.18700
C1813       C  0.83961544  0.18137021  0.75907567     0.15900
C1814       C  0.82784654  0.17139609  0.75552007    -0.18600
C1815       C  0.83809907  0.19144401  0.77109888    -0.20400
C1816       C  0.84923912  0.20220659  0.77379653    -0.13000
C1817       C  0.86226143  0.20290743  0.76475643     0.03700
C1818       C  0.86423099  0.19235321  0.75315831    -0.25100
H1819       H  0.84341527  0.15513099  0.72438699     0.08800
H1820       H  0.86408373  0.17205373  0.73074880     0.12400
H1821       H  0.81755989  0.17160119  0.76214783     0.12300
H1822       H  0.82807276  0.19132801  0.77811784     0.12100
H1823       H  0.84755641  0.21021604  0.78283872     0.12600
H1824       H  0.87416232  0.19297906  0.74602302     0.14600
C1825       C  0.79012860  0.20314023  0.66221823    -0.05500
C1826       C  0.79758984  0.18991314  0.65778430    -0.05400
C1827       C  0.80021268  0.17838716  0.66818999    -0.23500
C1828       C  0.79520457  0.17985901  0.68311486     0.18700
C1829       C  0.78741148  0.19301144  0.68757154     0.15900
C1830       C  0.78505406  0.20458066  0.67715346    -0.18600
C1831       C  0.78204550  0.19437408  0.70237391    -0.20400
C1832       C  0.78451437  0.18284221  0.71274973    -0.13000
C1833       C  0.79256381  0.16992265  0.70851564     0.03700
C1834       C  0.79784417  0.16843771  0.69367392    -0.25100
H1835       H  0.80157022  0.18857577  0.64632845     0.08800
H1836       H  0.80613293  0.16833724  0.66457422     0.12400
H1837       H  0.77898834  0.21457953  0.68065368     0.12300
H1838       H  0.77600200  0.20437086  0.70593320     0.12100
H1839       H  0.78046406  0.18415971  0.72418830     0.12600
H1840       H  0.80389865  0.15835633  0.69034541     0.14600
C1841       C  0.77853683  0.13362563  0.74980621    -0.05500
C1842       C  0.76425342  0.13057544  0.74345979    -0.05400
C1843       C  0.75116048  0.13013912  0.75241593    -0.23500
C1844       C  0.75202990  0.13228608  0.76805314     0.18700
C1845       C  0.76637404  0.13308597  0.77482849     0.15900
C1846       C  0.77951775  0.13351018  0.76575347    -0.18600
C1847       C  0.76727338  0.13432747  0.79055371    -0.20400
C1848       C  0.75421323  0.13656800  0.79924277    -0.13000
C1849       C  0.73990056  0.13804948  0.79244161     0.03700
C1850       C  0.73888951  0.13451625  0.77688596    -0.25100
H1851       H  0.76302763  0.12992715  0.73135076     0.08800
H1852       H  0.74028031  0.12899927  0.74698376     0.12400
H1853       H  0.79028783  0.13452649  0.77130702     0.12300
H1854       H  0.77816174  0.13436342  0.79609202     0.12100
H1855       H  0.75549789  0.13809396  0.81125436     0.12600
H1856       H  0.72799849  0.13428194  0.77140142     0.14600
C1857       C  0.78359374  0.35293390  0.83464212    -0.05500
C1858       C  0.77066601  0.34400529  0.83229793    -0.05400
C1859       C  0.76614005  0.33335769  0.84290098    -0.23500
C1860       C  0.77455407  0.33115513  0.85601820     0.18700
C1861       C  0.78760483  0.33988167  0.85860410     0.15900
C1862       C  0.79204494  0.35073851  0.84791412    -0.18600
C1863       C  0.79602508  0.33744671  0.87176657    -0.20400
C1864       C  0.79173017  0.32621330  0.88203135    -0.13000
C1865       C  0.77889590  0.31727025  0.87935467     0.03700
C1866       C  0.77022972  0.32010120  0.86640563    -0.25100
H1867       H  0.76412014  0.34491940  0.82208174     0.08800
H1868       H  0.75616454  0.32664474  0.84069744     0.12400
H1869       H  0.80203002  0.35739940  0.85002255     0.12300
H1870       H  0.80605470  0.34405979  0.87400584     0.12100
H1871       H  0.79863801  0.32436257  0.89188800     0.12600
H1872       H  0.76012863  0.31362019  0.86420476     0.14600
C1873       C  0.81887585  0.35380503  0.79869711    -0.05500
C1874       C  0.81476819  0.34265600  0.78827874    -0.05400
C1875       C  0.82496537  0.33145118  0.78412124    -0.23500
C1876       C  0.83951626  0.33120736  0.79025444     0.18700
C1877       C  0.84393878  0.34246556  0.80057444     0.15900
C1878       C  0.83352293  0.35368270  0.80483159    -0.18600
C1879       C  0.85863571  0.34216067  0.80650290    -0.20400
C1880       C  0.86868953  0.33060836  0.80250616    -0.13000
C1881       C  0.86418415  0.31913584  0.79258410     0.03700
C1882       C  0.84961214  0.31972049  0.78633884    -0.25100
H1883       H  0.80348126  0.34236162  0.78362342     0.08800
H1884       H  0.82140216  0.32286279  0.77622631     0.12400
H1885       H  0.83678755  0.36229599  0.81283412     0.12300
H1886       H  0.86228810  0.35073762  0.81436418     0.12100
H1887       H  0.87983536  0.33045092  0.80747693     0.12600
H1888       H  0.84601376  0.31119343  0.77840973     0.14600
C1889       C  0.77327955  0.38788660  0.79049451    -0.05500
C1890       C  0.75828326  0.39012271  0.79551906    -0.05400
C1891       C  0.74610787  0.38996571  0.78541716    -0.23500
C1892       C  0.74860915  0.38844443  0.76989113     0.18700
C1893       C  0.76357039  0.38897613  0.76447271     0.15900
C1894       C  0.77579769  0.38877746  0.77473258    -0.18600
C1895       C  0.76600977  0.38891109  0.74886485    -0.20400
C1896       C  0.75395687  0.38664951  0.73888023    -0.13000
C1897       C  0.73922393  0.38354224  0.74419608     0.03700
C1898       C  0.73653714  0.38572289  0.75979893    -0.25100
H1899       H  0.75578324  0.39072438  0.80743355     0.08800
H1900       H  0.73470252  0.39032478  0.78983962     0.12400
H1901       H  0.78719175  0.38846977  0.77032609     0.12300
H1902       H  0.77734349  0.38996123  0.74436792     0.12100
H1903       H  0.75644362  0.38619366  0.72695521     0.12600
H1904       H  0.72521812  0.38471573  0.76428058     0.14600
C1905       C  0.81494041  0.39417308  0.83149655    -0.05500
C1906       C  0.82702142  0.40297517  0.82622475    -0.05400
C1907       C  0.83889780  0.40703665  0.83591748    -0.23500
C1908       C  0.83892696  0.40228672  0.85104705     0.18700
C1909       C  0.82638226  0.39414001  0.85658994     0.15900
C1910       C  0.81450899  0.39022635  0.84683070    -0.18600
C1911       C  0.82616965  0.38949216  0.87167333    -0.20400
C1912       C  0.83838994  0.39255341  0.88113305    -0.13000
C1913       C  0.85124048  0.40015489  0.87573713     0.03700
C1914       C  0.85137525  0.40513178  0.86062346    -0.25100
H1915       H  0.82771686  0.40594322  0.81441680     0.08800
H1916       H  0.84832561  0.41339850  0.83143550     0.12400
H1917       H  0.80518581  0.38352681  0.85101160     0.12300
H1918       H  0.81664278  0.38323156  0.87610510     0.12100
H1919       H  0.83795776  0.38851310  0.89262669     0.12600
H1920       H  0.86113433  0.41112787  0.85633366     0.14600
C1921       C  0.24079687  0.53770345  0.74077092    -0.05500
C1922       C  0.25045661  0.53054109  0.73042795    -0.05400
C1923       C  0.25162325  0.51484453  0.73006775    -0.23500
C1924       C  0.24322609  0.50598944  0.74012554     0.18700
C1925       C  0.23331016  0.51303734  0.75041373     0.15900
C1926       C  0.23206682  0.52880909  0.75060025    -0.18600
C1927       C  0.22501430  0.50420462  0.76055405    -0.20400
C1928       C  0.22668813  0.48855629  0.76066972    -0.13000
C1929       C  0.23667575  0.48137064  0.75063293     0.03700
C1930       C  0.24479192  0.49023858  0.74024197    -0.25100
H1931       H  0.25719883  0.53707580  0.72262240     0.08800
H1932       H  0.25925072  0.50964705  0.72205857     0.12400
H1933       H  0.22467807  0.53411662  0.75874792     0.12300
H1934       H  0.21733490  0.50940680  0.76851184     0.12100
H1935       H  0.22013826  0.48212981  0.76870634     0.12600
H1936       H  0.25260249  0.48500633  0.73245702     0.14600
C1937       C  0.33879144  0.68984274  0.73981419    -0.05500
C1938       C  0.32767208  0.69339917  0.75056967    -0.05400
C1939       C  0.31683892  0.68286575  0.75473796    -0.23500
C1940       C  0.31681267  0.66857023  0.74816249     0.18700
C1941       C  0.32787812  0.66476334  0.73733165     0.15900
C1942       C  0.33883602  0.67546981  0.73317636    -0.18600
C1943       C  0.32763086  0.65038220  0.73079058    -0.20400
C1944       C  0.31639182  0.64000433  0.73480120    -0.13000
C1945       C  0.30525827  0.64381268  0.74546699     0.03700
C1946       C  0.30568606  0.65814435  0.75214185    -0.25100
H1947       H  0.32709481  0.70450674  0.75555997     0.08800
H1948       H  0.30835828  0.68597771  0.76298384     0.12400
H1949       H  0.34735910  0.67261772  0.72488366     0.12300
H1950       H  0.33604156  0.64720490  0.72250409     0.12100
H1951       H  0.31643973  0.62902177  0.72953070     0.12600
H1952       H  0.29718936  0.66145404  0.76025174     0.14600
C1953       C  0.27065510  0.03699260  0.75021241    -0.05500
C1954       C  0.25994764  0.03004343  0.74082707    -0.05400
C1955       C  0.25784971  0.01445837  0.74115552    -0.23500
C1956       C  0.26651322  0.00546149  0.75078337     0.18700
C1957       C  0.27745483  0.01225547  0.76014552     0.15900
C1958       C  0.27938716  0.02797224  0.75988302    -0.18600
C1959       C  0.28630466  0.00319478  0.76957263    -0.20400
C1960       C  0.28436186  0.98756752  0.76967978    -0.13000
C1961       C  0.27341345  0.98071530  0.76050916     0.03700
C1962       C  0.26445968  0.98978078  0.75113070    -0.25100
H1963       H  0.25293625  0.03666122  0.73337579     0.08800
H1964       H  0.24943104  0.00944828  0.73388334     0.12400
H1965       H  0.28778169  0.03312846  0.76707744     0.12300
H1966       H  0.29475221  0.00818008  0.77682635     0.12100
H1967       H  0.29132370  0.98086492  0.77711083     0.12600
H1968       H  0.25609774  0.98462747  0.74389030     0.14600
C1969       C  0.33823981  0.72379829  0.70319367    -0.05500
C1970       C  0.32610772  0.73357671  0.70604016    -0.05400
C1971       C  0.31672475  0.73824189  0.69441247    -0.23500
C1972       C  0.31939646  0.73330219  0.67969685     0.18700
C1973       C  0.33122349  0.72302795  0.67671832     0.15900
C1974       C  0.34052329  0.71817222  0.68858192    -0.18600
C1975       C  0.33374869  0.71819683  0.66187095    -0.20400
C1976       C  0.32493801  0.72388385  0.65007226    -0.13000
C1977       C  0.31351657  0.73448588  0.65296892     0.03700
C1978       C  0.31062143  0.73883498  0.66788756    -0.25100
H1979       H  0.32399976  0.73777796  0.71729812     0.08800
H1980       H  0.30760837  0.74600539  0.69687299     0.12400
H1981       H  0.34988669  0.71062435  0.68635531     0.12300
H1982       H  0.34271045  0.71027961  0.65935276     0.12100
H1983       H  0.32731711  0.72029839  0.63866428     0.12600
H1984       H  0.30159096  0.74667007  0.67038842     0.14600
C1985       C  0.17894139  0.79149213  0.69168451    -0.05500
C1986       C  0.17556492  0.77902163  0.68255226    -0.05400
C1987       C  0.18391377  0.77616134  0.66947130    -0.23500
C1988       C  0.19597734  0.78557895  0.66542136     0.18700
C1989       C  0.19942872  0.79818397  0.67452657     0.15900
C1990       C  0.19076828  0.80117004  0.68746215    -0.18600
C1991       C  0.21178174  0.80733103  0.67079824    -0.20400
C1992       C  0.22093246  0.80374555  0.65848146    -0.13000
C1993       C  0.21770991  0.79118228  0.64943222     0.03700
C1994       C  0.20497447  0.78231978  0.65274768    -0.25100
H1995       H  0.16639712  0.77150198  0.68551197     0.08800
H1996       H  0.18110475  0.76643422  0.66267372     0.12400
H1997       H  0.19360335  0.81069164  0.69454702     0.12300
H1998       H  0.21461797  0.81701432  0.67764898     0.12100
H1999       H  0.23069944  0.81070813  0.65611519     0.12600
H2000       H  0.20255688  0.77246529  0.64597226     0.14600
C2001       C  0.18363974  0.82340500  0.73127294    -0.05500
C2002       C  0.19663925  0.81907745  0.73918438    -0.05400
C2003       C  0.20666665  0.82982709  0.74461078    -0.23500
C2004       C  0.20382119  0.84516067  0.74235703     0.18700
C2005       C  0.19100055  0.84974801  0.73409369     0.15900
C2006       C  0.18100985  0.83877229  0.72840642    -0.18600
C2007       C  0.18831801  0.86521098  0.73201175    -0.20400
C2008       C  0.19807858  0.87595356  0.73831142    -0.13000
C2009       C  0.21066751  0.87141216  0.74680447     0.03700
C2010       C  0.21352847  0.85593420  0.74851474    -0.25100
H2011       H  0.19897110  0.80728803  0.74130138     0.08800
H2012       H  0.21650690  0.82614400  0.75083953     0.12400
H2013       H  0.17096496  0.84215981  0.72233128     0.12300
H2014       H  0.17857466  0.86899480  0.72570190     0.12100
H2015       H  0.19561610  0.88779229  0.73676569     0.12600
H2016       H  0.22333727  0.85212737  0.75468110     0.14600
C2017       C  0.20307873  0.74616873  0.88096162    -0.05500
C2018       C  0.19247062  0.73508128  0.88500375    -0.05400
C2019       C  0.18182879  0.72990304  0.87455393    -0.23500
C2020       C  0.18160281  0.73570414  0.85984993     0.18700
C2021       C  0.19207513  0.74699326  0.85576963     0.15900
C2022       C  0.20263848  0.75216462  0.86629957    -0.18600
C2023       C  0.19198563  0.75283077  0.84113549    -0.20400
C2024       C  0.18178284  0.74738704  0.83052526    -0.13000
C2025       C  0.17130238  0.73607188  0.83431647     0.03700
C2026       C  0.17123207  0.73033737  0.84911338    -0.25100
H2027       H  0.19253282  0.73019458  0.89616357     0.08800
H2028       H  0.17389178  0.72124213  0.87792503     0.12400
H2029       H  0.21052031  0.76087293  0.86297259     0.12300
H2030       H  0.19999132  0.76144689  0.83780386     0.12100
H2031       H  0.18244600  0.75181244  0.81919416     0.12600
H2032       H  0.16314826  0.72175256  0.85230893     0.14600
C2033       C  0.17145707  0.69374042  0.80557603    -0.05500
C2034       C  0.18423092  0.69199218  0.81470930    -0.05400
C2035       C  0.19369723  0.67951838  0.81288498    -0.23500
C2036       C  0.19035423  0.66850876  0.80205459     0.18700
C2037       C  0.17711890  0.66988124  0.79329843     0.15900
C2038       C  0.16781902  0.68254580  0.79503926    -0.18600
C2039       C  0.17357579  0.65871528  0.78273255    -0.20400
C2040       C  0.18337062  0.64660095  0.78038900    -0.13000
C2041       C  0.19693796  0.64550919  0.78847980     0.03700
C2042       C  0.20018614  0.65635697  0.79956261    -0.25100
H2043       H  0.18712205  0.70051738  0.82293229     0.08800
H2044       H  0.20373303  0.67859416  0.81977763     0.12400
H2045       H  0.15777957  0.68375019  0.78817480     0.12300
H2046       H  0.16340131  0.65953376  0.77602749     0.12100
H2047       H  0.18061017  0.63844690  0.77177184     0.12600
H2048       H  0.21050518  0.65551298  0.80604331     0.14600
C2049       C  0.14484031  0.73915273  0.78465596    -0.05500
C2050       C  0.13077441  0.74499128  0.78006212    -0.05400
C2051       C  0.12990088  0.75540155  0.76800225    -0.23500
C2052       C  0.14303355  0.76006456  0.76023043     0.18700
C2053       C  0.15699163  0.75377131  0.76458669     0.15900
C2054       C  0.15778633  0.74371209  0.77665140    -0.18600
C2055       C  0.17021765  0.75782364  0.75710087    -0.20400
C2056       C  0.16985903  0.76841307  0.74565940    -0.13000
C2057       C  0.15632283  0.77556025  0.74131748     0.03700
C2058       C  0.14271589  0.77108020  0.74853876    -0.25100
H2059       H  0.12054857  0.74196210  0.78600236     0.08800
H2060       H  0.11900210  0.75997122  0.76492228     0.12400
H2061       H  0.16877164  0.73958912  0.78011880     0.12300
H2062       H  0.18098404  0.75298790  0.76028612     0.12100
H2063       H  0.18049437  0.77150391  0.74044454     0.12600
H2064       H  0.13213474  0.77631475  0.74547072     0.14600
C2065       C  0.12929122  0.70319033  0.82857730    -0.05500
C2066       C  0.12433539  0.68967676  0.82202891    -0.05400
C2067       C  0.12005880  0.67742789  0.83108254    -0.23500
C2068       C  0.12078048  0.67847651  0.84685385     0.18700
C2069       C  0.12483232  0.69237487  0.85346905     0.15900
C2070       C  0.12905035  0.70460591  0.84431095    -0.18600
C2071       C  0.12551839  0.69356239  0.86915292    -0.20400
C2072       C  0.12301550  0.68095463  0.87822466    -0.13000
C2073       C  0.11980828  0.66676209  0.87188212     0.03700
C2074       C  0.11828686  0.66574495  0.85609230    -0.25100
H2075       H  0.12489443  0.68821133  0.80993512     0.08800
H2076       H  0.11695555  0.66690854  0.82574776     0.12400
H2077       H  0.13322104  0.71488375  0.84942193     0.12300
H2078       H  0.12848350  0.70416069  0.87442195     0.12100
H2079       H  0.12417630  0.68235212  0.89024556     0.12600
H2080       H  0.11560774  0.65502228  0.85094714     0.14600
C2081       C  0.34631365  0.82232529  0.80748123    -0.05500
C2082       C  0.33443700  0.82432975  0.81777584    -0.05400
C2083       C  0.32384580  0.83578068  0.81568152    -0.23500
C2084       C  0.32510240  0.84557942  0.80336877     0.18700
C2085       C  0.33715249  0.84381143  0.79304625     0.15900
C2086       C  0.34757910  0.83206339  0.79506143    -0.18600
C2087       C  0.33859284  0.85388467  0.78095295    -0.20400
C2088       C  0.32816203  0.86556074  0.77907805    -0.13000
C2089       C  0.31597086  0.86715642  0.78908283     0.03700
C2090       C  0.31450988  0.85711509  0.80121614    -0.25100
H2091       H  0.33318875  0.81684362  0.82733053     0.08800
H2092       H  0.31469707  0.83699312  0.82370911     0.12400
H2093       H  0.35682040  0.83066368  0.78716150     0.12300
H2094       H  0.34776567  0.85272461  0.77294594     0.12100
H2095       H  0.32939166  0.87309606  0.76956590     0.12600
H2096       H  0.30518540  0.85836176  0.80904645     0.14600
C2097       C  0.34946420  0.78433809  0.84037605    -0.05500
C2098       C  0.33840529  0.77333864  0.83763104    -0.05400
C2099       C  0.32800394  0.76943234  0.84873519    -0.23500
C2100       C  0.32839752  0.77649573  0.86280136     0.18700
C2101       C  0.33978078  0.78715960  0.86601581     0.15900
C2102       C  0.35028629  0.79103892  0.85473777    -0.18600
C2103       C  0.34007499  0.79404864  0.88027560    -0.20400
C2104       C  0.32870403  0.79097388  0.89088709    -0.13000
C2105       C  0.31690212  0.78106099  0.88729777     0.03700
C2106       C  0.31714811  0.77349395  0.87344199    -0.25100
H2107       H  0.33736254  0.76815841  0.82665212     0.08800
H2108       H  0.31934360  0.76121211  0.84615076     0.12400
H2109       H  0.35889470  0.79939103  0.85705097     0.12300
H2110       H  0.34878529  0.80215297  0.88302508     0.12100
H2111       H  0.32870614  0.79688180  0.90154864     0.12600
H2112       H  0.30822243  0.76559554  0.87071683     0.14600
C2113       C  0.37582961  0.77691737  0.79090684    -0.05500
C2114       C  0.39011593  0.77244111  0.78543750    -0.05400
C2115       C  0.39131195  0.76157784  0.77378241    -0.23500
C2116       C  0.37827173  0.75503934  0.76736632     0.18700
C2117       C  0.36406211  0.75979456  0.77284471     0.15900
C2118       C  0.36299222  0.77040938  0.78434692    -0.18600
C2119       C  0.35084906  0.75384596  0.76692894    -0.20400
C2120       C  0.35149353  0.74308337  0.75576355    -0.13000
C2121       C  0.36535111  0.73767212  0.74997112     0.03700
C2122       C  0.37892314  0.74384602  0.75580508    -0.25100
H2123       H  0.40031887  0.77711871  0.79017940     0.08800
H2124       H  0.40240460  0.75824616  0.76986739     0.12400
H2125       H  0.35188476  0.77361715  0.78841602     0.12300
H2126       H  0.33989004  0.75744232  0.77103109     0.12100
H2127       H  0.34083917  0.73869947  0.75167025     0.12600
H2128       H  0.38971468  0.73995093  0.75160205     0.14600
C2129       C  0.25855322  0.75912065  0.48322741    -0.05500
C2130       C  0.24900057  0.76937267  0.49064385    -0.05400
C2131       C  0.24764906  0.76922274  0.50631420    -0.23500
C2132       C  0.25590601  0.75888307  0.51491552     0.18700
C2133       C  0.26566984  0.74861182  0.50763138     0.15900
C2134       C  0.26687656  0.74873636  0.49184716    -0.18600
C2135       C  0.27406170  0.73840684  0.51627348    -0.20400
C2136       C  0.27276632  0.73835348  0.53196655    -0.13000
C2137       C  0.26300165  0.74845450  0.53935759     0.03700
C2138       C  0.25458315  0.75869748  0.53067500    -0.25100
H2139       H  0.24233259  0.77738550  0.48433035     0.08800
H2140       H  0.24010597  0.77718636  0.51170455     0.12400
H2141       H  0.27440146  0.74085543  0.48631873     0.12300
H2142       H  0.28163312  0.73045954  0.51090135     0.12100
H2143       H  0.27935075  0.73027736  0.53827919     0.12600
H2144       H  0.24715067  0.76670402  0.53613063     0.14600
C2145       C  0.33337211  0.67447149  0.29393852    -0.05500
C2146       C  0.32954638  0.68460219  0.28240506    -0.05400
C2147       C  0.33950396  0.69597789  0.27809947    -0.23500
C2148       C  0.35353225  0.69738653  0.28518726     0.18700
C2149       C  0.35767609  0.68711919  0.29662683     0.15900
C2150       C  0.34748134  0.67578620  0.30104946    -0.18600
C2151       C  0.37191132  0.68844601  0.30343660    -0.20400
C2152       C  0.38179651  0.70000114  0.29913181    -0.13000
C2153       C  0.37748682  0.71051750  0.28814541     0.03700
C2154       C  0.36339249  0.70902990  0.28111262    -0.25100
H2155       H  0.31866769  0.68393160  0.27690342     0.08800
H2156       H  0.33618266  0.70374163  0.26929628     0.12400
H2157       H  0.35056478  0.66791611  0.30985345     0.12300
H2158       H  0.37533385  0.68064874  0.31216814     0.12100
H2159       H  0.39260517  0.70100416  0.30471831     0.12600
H2160       H  0.36007663  0.71697084  0.27245801     0.14600
C2161       C  0.27804842  0.70324368  0.37251978    -0.05500
C2162       C  0.28894796  0.69296443  0.37774327    -0.05400
C2163       C  0.29623376  0.68314207  0.36778375    -0.23500
C2164       C  0.29270992  0.68333783  0.35241294     0.18700
C2165       C  0.28177920  0.69360221  0.34704285     0.15900
C2166       C  0.27460275  0.70346220  0.35706374    -0.18600
C2167       C  0.27806080  0.69375861  0.33172800    -0.20400
C2168       C  0.28481850  0.68356701  0.32187465    -0.13000
C2169       C  0.29553843  0.67317090  0.32711714     0.03700
C2170       C  0.29970150  0.67330155  0.34235010    -0.25100
H2171       H  0.29188523  0.69243415  0.38953603     0.08800
H2172       H  0.30454671  0.67531757  0.37212733     0.12400
H2173       H  0.26629574  0.71123606  0.35269332     0.12300
H2174       H  0.26977658  0.70162396  0.32740325     0.12100
H2175       H  0.28167062  0.68379888  0.31010283     0.12600
H2176       H  0.30798303  0.66530589  0.34642862     0.14600
C2177       C  0.23079104  0.80993777  0.37224264    -0.05500
C2178       C  0.21765080  0.80845800  0.36357475    -0.05400
C2179       C  0.21433275  0.81882401  0.35226650    -0.23500
C2180       C  0.22427285  0.83071326  0.34921373     0.18700
C2181       C  0.23744633  0.83248645  0.35799796     0.15900
C2182       C  0.24053636  0.82217608  0.36964840    -0.18600
C2183       C  0.24743892  0.84430395  0.35468612    -0.20400
C2184       C  0.24439285  0.85423680  0.34281527    -0.13000
C2185       C  0.23130514  0.85253848  0.33400481     0.03700
C2186       C  0.22134083  0.84065968  0.33731606    -0.25100
H2187       H  0.21000705  0.79911320  0.36545626     0.08800
H2188       H  0.20415000  0.81734753  0.34568918     0.12400
H2189       H  0.25079909  0.82324729  0.37618595     0.12300
H2190       H  0.25761463  0.84585292  0.36125016     0.12100
H2191       H  0.25219276  0.86338420  0.34069749     0.12600
H2192       H  0.21143094  0.83884741  0.33043610     0.14600
C2193       C  0.19993389  0.85293429  0.29313651    -0.05500
C2194       C  0.20392628  0.84498276  0.27999580    -0.05400
C2195       C  0.19396913  0.83473305  0.27347650    -0.23500
C2196       C  0.17988783  0.83194652  0.28008992     0.18700
C2197       C  0.17572047  0.83970245  0.29333394     0.15900
C2198       C  0.18569909  0.85023455  0.29970690    -0.18600
C2199       C  0.16166784  0.83670991  0.30000421    -0.20400
C2200       C  0.15192464  0.82603210  0.29369477    -0.13000
C2201       C  0.15599492  0.81818172  0.28053991     0.03700
C2202       C  0.17000993  0.82137143  0.27374445    -0.25100
H2203       H  0.21489397  0.84639324  0.27481094     0.08800
H2204       H  0.19739367  0.82880757  0.26336869     0.12400
H2205       H  0.18225939  0.85638187  0.30966119     0.12300
H2206       H  0.15827436  0.84250464  0.31019561     0.12100
H2207       H  0.14129398  0.82380895  0.29928722     0.12600
H2208       H  0.17334745  0.81561904  0.26352863     0.14600
C2209       C  0.16089299  0.70981325  0.23678634    -0.05500
C2210       C  0.16856441  0.71051013  0.22296761    -0.05400
C2211       C  0.17992171  0.70014650  0.21955768    -0.23500
C2212       C  0.18402394  0.68910971  0.23007203     0.18700
C2213       C  0.17642626  0.68836132  0.24406565     0.15900
C2214       C  0.16475031  0.69861643  0.24726888    -0.18600
C2215       C  0.18079324  0.67750104  0.25465937    -0.20400
C2216       C  0.19242456  0.66735438  0.25134925    -0.13000
C2217       C  0.19996861  0.66789155  0.23739448     0.03700
C2218       C  0.19571986  0.67894306  0.22686405    -0.25100
H2219       H  0.16573909  0.71911267  0.21479580     0.08800
H2220       H  0.18562265  0.70088227  0.20877447     0.12400
H2221       H  0.15902368  0.69822650  0.25806381     0.12300
H2222       H  0.17518055  0.67681582  0.26549009     0.12100
H2223       H  0.19533566  0.65893473  0.25966153     0.12600
H2224       H  0.20168820  0.67992813  0.21625857     0.14600
C2225       C  0.29187263  0.63628544  0.28376562    -0.05500
C2226       C  0.29705251  0.63405405  0.26887361    -0.05400
C2227       C  0.28690173  0.63223306  0.25688799    -0.23500
C2228       C  0.27125797  0.63217641  0.25946733     0.18700
C2229       C  0.26594697  0.63216293  0.27442686     0.15900
C2230       C  0.27625223  0.63385018  0.28646973    -0.18600
C2231       C  0.25032460  0.63134295  0.27701972    -0.20400
C2232       C  0.24008281  0.63225443  0.26500535    -0.13000
C2233       C  0.24512436  0.63436627  0.25005680     0.03700
C2234       C  0.26087732  0.63295657  0.24739610    -0.25100
H2235       H  0.30897404  0.63468122  0.26626654     0.08800
H2236       H  0.29129297  0.63168008  0.24550986     0.12400
H2237       H  0.27189107  0.63427096  0.29785159     0.12300
H2238       H  0.24597209  0.63078502  0.28841287     0.12100
H2239       H  0.22813779  0.63221124  0.26758999     0.12600
H2240       H  0.26521411  0.63333703  0.23600599     0.14600
C2241       C  0.20580228  0.62661429  0.20723361    -0.05500
C2242       C  0.19305487  0.61880495  0.21252954    -0.05400
C2243       C  0.18124796  0.61492938  0.20265342    -0.23500
C2244       C  0.18188173  0.61902455  0.18733850     0.18700
C2245       C  0.19502536  0.62620768  0.18185940     0.15900
C2246       C  0.20690976  0.62971011  0.19175017    -0.18600
C2247       C  0.19582548  0.63045932  0.16670056    -0.20400
C2248       C  0.18362908  0.62796242  0.15707250    -0.13000
C2249       C  0.17024172  0.62111930  0.16226806     0.03700
C2250       C  0.16952590  0.61652573  0.17751082    -0.25100
H2251       H  0.19180216  0.61654025  0.22444777     0.08800
H2252       H  0.17133696  0.60934423  0.20713103     0.12400
H2253       H  0.21673916  0.63558422  0.18754677     0.12300
H2254       H  0.20579159  0.63605162  0.16233714     0.12100
H2255       H  0.18463592  0.63180544  0.14556091     0.12600
H2256       H  0.15938714  0.61115534  0.18174019     0.14600
C2257       C  0.26678315  0.76362045  0.05092405    -0.05500
C2258       C  0.27619302  0.77398053  0.04344705    -0.05400
C2259       C  0.27587582  0.77533063  0.02778890    -0.23500
C2260       C  0.26609611  0.76638550  0.01923317     0.18700
C2261       C  0.25646636  0.75600451  0.02654023     0.15900
C2262       C  0.25691730  0.75462360  0.04232367    -0.18600
C2263       C  0.24654906  0.74721552  0.01791146    -0.20400
C2264       C  0.24628618  0.74862071  0.00220566    -0.13000
C2265       C  0.25602859  0.75872888  0.99481972     0.03700
C2266       C  0.26585140  0.76764531  0.00348220    -0.25100
H2267       H  0.28399536  0.78098008  0.04965995     0.08800
H2268       H  0.28332660  0.78335920  0.02236663     0.12400
H2269       H  0.24947003  0.74668402  0.04786140     0.12300
H2270       H  0.23904673  0.73921275  0.02329565     0.12100
H2271       H  0.23865498  0.74156684  0.99582967     0.12600
H2272       H  0.27326342  0.77566647  0.99800541     0.14600
C2273       C  0.24480194  0.70317024  0.15976444    -0.05500
C2274       C  0.23517398  0.69160438  0.15487689    -0.05400
C2275       C  0.23084891  0.68007089  0.16477296    -0.23500
C2276       C  0.23623317  0.67987471  0.17964148     0.18700
C2277       C  0.24626227  0.69124106  0.18445686     0.15900
C2278       C  0.25045352  0.70273954  0.17453984    -0.18600
C2279       C  0.25186223  0.69105302  0.19918644    -0.20400
C2280       C  0.24758386  0.67966413  0.20911208    -0.13000
C2281       C  0.23754506  0.66831616  0.20454314     0.03700
C2282       C  0.23176536  0.66857972  0.18980314    -0.25100
H2283       H  0.23068708  0.69168693  0.14355056     0.08800
H2284       H  0.22321870  0.67139164  0.16084723     0.12400
H2285       H  0.25817875  0.71135536  0.17840413     0.12300
H2286       H  0.25948819  0.69976238  0.20306127     0.12100
H2287       H  0.25187193  0.67994462  0.22051389     0.12600
H2288       H  0.22390446  0.66003204  0.18620171     0.14600
C2289       C  0.33217625  0.85816957  0.24473224    -0.05500
C2290       C  0.33116808  0.85191008  0.25928685    -0.05400
C2291       C  0.34267584  0.84282436  0.26496229    -0.23500
C2292       C  0.35541486  0.83962317  0.25619220     0.18700
C2293       C  0.35689359  0.84611634  0.24176248     0.15900
C2294       C  0.34529276  0.85531732  0.23614434    -0.18600
C2295       C  0.36975422  0.84290141  0.23303613    -0.20400
C2296       C  0.38069914  0.83282605  0.23832543    -0.13000
C2297       C  0.37885379  0.82576687  0.25234227     0.03700
C2298       C  0.36638237  0.82952572  0.26137710    -0.25100
H2299       H  0.32122846  0.85345477  0.26619346     0.08800
H2300       H  0.34138711  0.83792542  0.27607182     0.12400
H2301       H  0.34651490  0.85995169  0.22497472     0.12300
H2302       H  0.37112137  0.84782625  0.22194896     0.12100
H2303       H  0.39018739  0.82997599  0.23116446     0.12600
H2304       H  0.36497220  0.82418794  0.27227646     0.14600
C2305       C  0.29644565  0.84801201  0.20921027    -0.05500
C2306       C  0.28581260  0.83696781  0.21321165    -0.05400
C2307       C  0.28200978  0.82551764  0.20316753    -0.23500
C2308       C  0.28872511  0.82490739  0.18888186     0.18700
C2309       C  0.29957184  0.83579836  0.18471950     0.15900
C2310       C  0.30343177  0.84726300  0.19495076    -0.18600
C2311       C  0.30613698  0.83513548  0.17031503    -0.20400
C2312       C  0.30186853  0.82386571  0.16011093    -0.13000
C2313       C  0.29104786  0.81300969  0.16417390     0.03700
C2314       C  0.28458394  0.81365062  0.17865684    -0.25100
H2315       H  0.28045375  0.83713832  0.22417755     0.08800
H2316       H  0.27371819  0.81719109  0.20654261     0.12400
H2317       H  0.31149861  0.85582629  0.19162829     0.12300
H2318       H  0.31450295  0.84337359  0.16691416     0.12100
H2319       H  0.30711224  0.82359440  0.14909748     0.12600
H2320       H  0.27605117  0.80557601  0.18198472     0.14600
C2321       C  0.24466293  0.88901530  0.29146928    -0.05500
C2322       C  0.25909740  0.89157865  0.29769513    -0.05400
C2323       C  0.27194768  0.89279203  0.28848526    -0.23500
C2324       C  0.27069474  0.89180376  0.27276274     0.18700
C2325       C  0.25620602  0.89163358  0.26627391     0.15900
C2326       C  0.24328830  0.89070006  0.27562716    -0.18600
C2327       C  0.25495366  0.89142318  0.25051815    -0.20400
C2328       C  0.26781925  0.88963129  0.24141766    -0.13000
C2329       C  0.28225953  0.88760442  0.24780349     0.03700
C2330       C  0.28361545  0.89010954  0.26353259    -0.25100
H2331       H  0.26067004  0.89150826  0.30977101     0.08800
H2332       H  0.28295597  0.89355396  0.29372630     0.12400
H2333       H  0.23228188  0.89025632  0.27039062     0.12300
H2334       H  0.24394265  0.89174902  0.24523816     0.12100
H2335       H  0.26629975  0.88857525  0.22937345     0.12600
H2336       H  0.29453778  0.89011846  0.26888991     0.14600
C2337       C  0.54476897  0.76734339  0.26148913    -0.05500
C2338       C  0.53776983  0.77393866  0.24888898    -0.05400
C2339       C  0.52207823  0.77537263  0.24818853    -0.23500
C2340       C  0.51301349  0.77012783  0.26001313     0.18700
C2341       C  0.51986764  0.76331694  0.27266907     0.15900
C2342       C  0.53567445  0.76209030  0.27338655    -0.18600
C2343       C  0.51077281  0.75770501  0.28432623    -0.20400
C2344       C  0.49505672  0.75867511  0.28337636    -0.13000
C2345       C  0.48816113  0.76556729  0.27092815     0.03700
C2346       C  0.49721300  0.77142303  0.25932820    -0.25100
H2347       H  0.54439757  0.77821097  0.23958373     0.08800
H2348       H  0.51703317  0.78055531  0.23836313     0.12400
H2349       H  0.54083669  0.75682865  0.28310293     0.12300
H2350       H  0.51580413  0.75243146  0.29410981     0.12100
H2351       H  0.48826246  0.75415697  0.29246801     0.12600
H2352       H  0.49194339  0.77659138  0.24960577     0.14600
C2353       C  0.69201969  0.73215059  0.35551268    -0.05500
C2354       C  0.67845447  0.72395169  0.35477635    -0.05400
C2355       C  0.66645003  0.72900768  0.34588766    -0.23500
C2356       C  0.66776398  0.74239241  0.33759545     0.18700
C2357       C  0.68127314  0.75082601  0.33846289     0.15900
C2358       C  0.69327416  0.74565877  0.34733857    -0.18600
C2359       C  0.68267058  0.76420935  0.33026285    -0.20400
C2360       C  0.67096665  0.76902062  0.32096486    -0.13000
C2361       C  0.65760317  0.76055054  0.31961194     0.03700
C2362       C  0.65596064  0.74734533  0.32823047    -0.25100
H2363       H  0.67703067  0.71367873  0.36118665     0.08800
H2364       H  0.65616307  0.72241094  0.34545313     0.12400
H2365       H  0.70372239  0.75200619  0.34754977     0.12300
H2366       H  0.69290072  0.77088019  0.33089174     0.12100
H2367       H  0.67248978  0.77937114  0.31471397     0.12600
H2368       H  0.64577151  0.74065872  0.32728299     0.14600
C2369       C  0.99205348  0.74114211  0.27005764    -0.05500
C2370       C  0.99964575  0.73124431  0.26026311    -0.05400
C2371       C  0.01543102  0.73144651  0.25910256    -0.23500
C2372       C  0.02396795  0.74175100  0.26751621     0.18700
C2373       C  0.01646310  0.75177736  0.27736854     0.15900
C2374       C  0.00061852  0.75127777  0.27872664    -0.18600
C2375       C  0.02491397  0.76232968  0.28551548    -0.20400
C2376       C  0.04060040  0.76308891  0.28381266    -0.13000
C2377       C  0.04826688  0.75319619  0.27407513     0.03700
C2378       C  0.03982494  0.74239373  0.26606127    -0.25100
H2379       H  0.99336554  0.72325591  0.25353003     0.08800
H2380       H  0.02094363  0.72366470  0.25147568     0.12400
H2381       H  0.99494052  0.75910178  0.28619195     0.12300
H2382       H  0.01937101  0.77012417  0.29311035     0.12100
H2383       H  0.04674493  0.77141552  0.29024733     0.12600
H2384       H  0.04550635  0.73476869  0.25840182     0.14600
C2385       C  0.73924166  0.65107407  0.31672703    -0.05500
C2386       C  0.72716349  0.64737690  0.32636217    -0.05400
C2387       C  0.72173513  0.65781382  0.33685893    -0.23500
C2388       C  0.72828494  0.67215289  0.33793070     0.18700
C2389       C  0.74051745  0.67592401  0.32843279     0.15900
C2390       C  0.74592324  0.66540468  0.31798296    -0.18600
C2391       C  0.74714646  0.69020168  0.32947629    -0.20400
C2392       C  0.74183156  0.70060405  0.33997683    -0.13000
C2393       C  0.72978772  0.69695557  0.34966952     0.03700
C2394       C  0.72290075  0.68274079  0.34839482    -0.25100
H2395       H  0.72174057  0.63648234  0.32572665     0.08800
H2396       H  0.71238114  0.65468822  0.34409364     0.12400
H2397       H  0.75534450  0.66849996  0.31086330     0.12300
H2398       H  0.75646757  0.69332017  0.32219673     0.12100
H2399       H  0.74713854  0.71157762  0.34042962     0.12600
H2400       H  0.71360398  0.67975440  0.35570416     0.14600
C2401       C  0.80306267  0.69201312  0.17876735    -0.05500
C2402       C  0.81275905  0.68988970  0.19102840    -0.05400
C2403       C  0.81046493  0.67792224  0.20093677    -0.23500
C2404       C  0.79853070  0.66783329  0.19859209     0.18700
C2405       C  0.78913408  0.66946501  0.18585192     0.15900
C2406       C  0.79140871  0.68163580  0.17604739    -0.18600
C2407       C  0.77739332  0.65913352  0.18341031    -0.20400
C2408       C  0.77452338  0.64774350  0.19391914    -0.13000
C2409       C  0.78326891  0.64667524  0.20702840     0.03700
C2410       C  0.79551632  0.65647379  0.20907705    -0.25100
H2411       H  0.82179779  0.69780604  0.19323413     0.08800
H2412       H  0.81781712  0.67674297  0.21059929     0.12400
H2413       H  0.78407143  0.68313775  0.16641005     0.12300
H2414       H  0.77017362  0.66013594  0.17363223     0.12100
H2415       H  0.76500782  0.64028602  0.19219279     0.12600
H2416       H  0.80242233  0.65553773  0.21909946     0.14600
C2417       C  0.88090876  0.73690737  0.21149003    -0.05500
C2418       C  0.88411165  0.72558405  0.20091110    -0.05400
C2419       C  0.87354455  0.72179486  0.18981463    -0.23500
C2420       C  0.85959075  0.72927615  0.18910336     0.18700
C2421       C  0.85652799  0.74103978  0.19935500     0.15900
C2422       C  0.86720006  0.74483682  0.21036114    -0.18600
C2423       C  0.84263803  0.74852889  0.19876182    -0.20400
C2424       C  0.83164885  0.74409760  0.18844860    -0.13000
C2425       C  0.83434794  0.73220427  0.17829642     0.03700
C2426       C  0.84853086  0.72499404  0.17857536    -0.25100
H2427       H  0.89454712  0.71927095  0.20154093     0.08800
H2428       H  0.87613514  0.71276183  0.18202794     0.12400
H2429       H  0.86465600  0.75378489  0.21825556     0.12300
H2430       H  0.84009832  0.75756330  0.20656469     0.12100
H2431       H  0.82083069  0.74972876  0.18886123     0.12600
H2432       H  0.85098853  0.71598840  0.17073632     0.14600
C2433       C  0.82725168  0.70090640  0.13636128    -0.05500
C2434       C  0.82103884  0.68743156  0.13085465    -0.05400
C2435       C  0.83039959  0.67515875  0.12714307    -0.23500
C2436       C  0.84615072  0.67606966  0.12909517     0.18700
C2437       C  0.85248042  0.68986746  0.13386839     0.15900
C2438       C  0.84304657  0.70215740  0.13731709    -0.18600
C2439       C  0.86809808  0.69092692  0.13600537    -0.20400
C2440       C  0.87738155  0.67838059  0.13387808    -0.13000
C2441       C  0.87136229  0.66434294  0.12958014     0.03700
C2442       C  0.85562275  0.66335657  0.12699427    -0.25100
H2443       H  0.80889941  0.68598817  0.13055833     0.08800
H2444       H  0.82525279  0.66471063  0.12351180     0.12400
H2445       H  0.84791598  0.71234501  0.14197463     0.12300
H2446       H  0.87313290  0.70141182  0.13970986     0.12100
H2447       H  0.88931088  0.67967833  0.13608072     0.12600
H2448       H  0.85072026  0.65271798  0.12359194     0.14600
C2449       C  0.76925157  0.86106358  0.20421349    -0.05500
C2450       C  0.77586770  0.84663930  0.20436613    -0.05400
C2451       C  0.77033999  0.83514216  0.19523404    -0.23500
C2452       C  0.75814002  0.83780461  0.18562791     0.18700
C2453       C  0.75166014  0.85231533  0.18491811     0.15900
C2454       C  0.75727586  0.86387131  0.19417234    -0.18600
C2455       C  0.73948889  0.85490804  0.17516767    -0.20400
C2456       C  0.73366711  0.84317258  0.16640518    -0.13000
C2457       C  0.73989849  0.82863871  0.16723747     0.03700
C2458       C  0.75221015  0.82609885  0.17688490    -0.25100
H2459       H  0.78521684  0.84402332  0.21170212     0.08800
H2460       H  0.77551837  0.82409896  0.19582076     0.12400
H2461       H  0.75206640  0.87488756  0.19373991     0.12300
H2462       H  0.73441284  0.86598225  0.17438271     0.12100
H2463       H  0.72435051  0.84553053  0.15890126     0.12600
H2464       H  0.75697753  0.81491394  0.17793763     0.14600
C2465       C  0.69986864  0.79823704  0.17335995    -0.05500
C2466       C  0.69976507  0.80854719  0.18531338    -0.05400
C2467       C  0.68888343  0.80753027  0.19662408    -0.23500
C2468       C  0.67778999  0.79630273  0.19602836     0.18700
C2469       C  0.67755901  0.78605031  0.18385840     0.15900
C2470       C  0.68873258  0.78698329  0.17264429    -0.18600
C2471       C  0.66618381  0.77505714  0.18318943    -0.20400
C2472       C  0.65532231  0.77406988  0.19462697    -0.13000
C2473       C  0.65580994  0.78393501  0.20697071     0.03700
C2474       C  0.66700038  0.79512071  0.20749156    -0.25100
H2475       H  0.70832909  0.81722805  0.18606487     0.08800
H2476       H  0.68917870  0.81548795  0.20586360     0.12400
H2477       H  0.68869259  0.77911957  0.16331229     0.12300
H2478       H  0.66576752  0.76715793  0.17390735     0.12100
H2479       H  0.64682055  0.76532860  0.19403577     0.12600
H2480       H  0.66732574  0.80295126  0.21684206     0.14600
C2481       C  0.74325757  0.77804951  0.14281174    -0.05500
C2482       C  0.74832853  0.77306236  0.12859795    -0.05400
C2483       C  0.75956285  0.76171648  0.12745912    -0.23500
C2484       C  0.76595732  0.75516899  0.14048561     0.18700
C2485       C  0.76046657  0.75995853  0.15463099     0.15900
C2486       C  0.74939051  0.77110394  0.15565022    -0.18600
C2487       C  0.76639883  0.75395858  0.16781647    -0.20400
C2488       C  0.77799514  0.74355730  0.16720389    -0.13000
C2489       C  0.78415612  0.73853752  0.15340996     0.03700
C2490       C  0.77787823  0.74431043  0.13987390    -0.25100
H2491       H  0.74404771  0.77818116  0.11842131     0.08800
H2492       H  0.76346874  0.75831160  0.11641397     0.12400
H2493       H  0.74585658  0.77488271  0.16672431     0.12300
H2494       H  0.76226823  0.75755354  0.17873534     0.12100
H2495       H  0.78247825  0.73954043  0.17781459     0.12600
H2496       H  0.78238141  0.74075039  0.12911537     0.14600
C2497       C  0.83208151  0.77482535  0.35640839    -0.05500
C2498       C  0.82851272  0.76352638  0.34595734    -0.05400
C2499       C  0.83968743  0.75735711  0.33673471    -0.23500
C2500       C  0.85466744  0.76233214  0.33783228     0.18700
C2501       C  0.85858566  0.77320219  0.34874813     0.15900
C2502       C  0.84722388  0.77945085  0.35795035    -0.18600
C2503       C  0.87369813  0.77794882  0.34986166    -0.20400
C2504       C  0.88461502  0.77260206  0.33969262    -0.13000
C2505       C  0.88054728  0.76250618  0.32823313     0.03700
C2506       C  0.86564126  0.75704185  0.32775045    -0.25100
H2507       H  0.81693385  0.75991822  0.34444594     0.08800
H2508       H  0.83652680  0.74899998  0.32843314     0.12400
H2509       H  0.85008588  0.78808623  0.36608136     0.12300
H2510       H  0.87696626  0.78615543  0.35826606     0.12100
H2511       H  0.89602543  0.77693635  0.34030983     0.12600
H2512       H  0.86242492  0.74900104  0.31915807     0.14600
C2513       C  0.79484452  0.86237219  0.31437297    -0.05500
C2514       C  0.78529526  0.86368310  0.32696534    -0.05400
C2515       C  0.78477357  0.85228728  0.33786831    -0.23500
C2516       C  0.79392217  0.83945149  0.33646301     0.18700
C2517       C  0.80377920  0.83817299  0.32399298     0.15900
C2518       C  0.80411621  0.84956300  0.31304416    -0.18600
C2519       C  0.81323636  0.82556330  0.32271962    -0.20400
C2520       C  0.81310931  0.81441921  0.33381853    -0.13000
C2521       C  0.80329533  0.81551106  0.34617436     0.03700
C2522       C  0.79358453  0.82798108  0.34739160    -0.25100
H2523       H  0.77795962  0.87334970  0.32822992     0.08800
H2524       H  0.77719935  0.85350512  0.34738556     0.12400
H2525       H  0.81170777  0.84846608  0.30352728     0.12300
H2526       H  0.82087938  0.82442135  0.31324633     0.12100
H2527       H  0.82069185  0.80489900  0.33277185     0.12600
H2528       H  0.78618167  0.82897461  0.35707855     0.14600
C2529       C  0.78107669  0.77808784  0.38359653    -0.05500
C2530       C  0.76706331  0.78566112  0.38369256    -0.05400
C2531       C  0.75344802  0.77775536  0.38532857    -0.23500
C2532       C  0.75345565  0.76209728  0.38747690     0.18700
C2533       C  0.76733340  0.75466603  0.38966961     0.15900
C2534       C  0.78104638  0.76267233  0.38783588    -0.18600
C2535       C  0.76721663  0.73917504  0.39286880    -0.20400
C2536       C  0.75373380  0.73088230  0.39202785    -0.13000
C2537       C  0.74012131  0.73771861  0.38737420     0.03700
C2538       C  0.73993316  0.75368064  0.38656997    -0.25100
H2539       H  0.76652152  0.79764830  0.38153860     0.08800
H2540       H  0.74289875  0.78381332  0.38419463     0.12400
H2541       H  0.79158671  0.75666862  0.38910492     0.12300
H2542       H  0.77767495  0.73328625  0.39513474     0.12100
H2543       H  0.75428004  0.71877434  0.39342441     0.12600
H2544       H  0.72961253  0.75969809  0.38435591     0.14600
C2545       C  0.75565591  0.48435299  0.27650554    -0.05500
C2546       C  0.74542440  0.49146541  0.28630644    -0.05400
C2547       C  0.74293109  0.50697507  0.28540856    -0.23500
C2548       C  0.75046574  0.51561752  0.27453056     0.18700
C2549       C  0.76077801  0.50857580  0.26461147     0.15900
C2550       C  0.76344112  0.49303449  0.26577348    -0.18600
C2551       C  0.76808945  0.51716016  0.25354782    -0.20400
C2552       C  0.76519998  0.53257069  0.25229446    -0.13000
C2553       C  0.75504577  0.53973021  0.26216208     0.03700
C2554       C  0.74774529  0.53114388  0.27331238    -0.25100
H2555       H  0.73935444  0.48502174  0.29471956     0.08800
H2556       H  0.73499104  0.51217423  0.29310871     0.12400
H2557       H  0.77119999  0.48764880  0.25801627     0.12300
H2558       H  0.77601417  0.51195392  0.24583570     0.12100
H2559       H  0.77113487  0.53889613  0.24371365     0.12600
H2560       H  0.73978709  0.53646615  0.28090665     0.14600
C2561       C  0.76826418  0.03003243  0.26769363    -0.05500
C2562       C  0.77898994  0.02360303  0.27744582    -0.05400
C2563       C  0.78105024  0.00801940  0.27807106    -0.23500
C2564       C  0.77248564  0.99847363  0.26890292     0.18700
C2565       C  0.76176528  0.00473545  0.25893403     0.15900
C2566       C  0.75965339  0.02044772  0.25844841    -0.18600
C2567       C  0.75338543  0.99515786  0.24958683    -0.20400
C2568       C  0.75561816  0.97956467  0.25010444    -0.13000
C2569       C  0.76613420  0.97320476  0.26009938     0.03700
C2570       C  0.77451468  0.98277997  0.26951563    -0.25100
H2571       H  0.78571873  0.03057198  0.28482169     0.08800
H2572       H  0.78934418  0.00343510  0.28575902     0.12400
H2573       H  0.75144236  0.02517258  0.25076570     0.12300
H2574       H  0.74512489  0.99972091  0.24185294     0.12100
H2575       H  0.74894503  0.97245834  0.24278779     0.12600
H2576       H  0.78280278  0.97806513  0.27713044     0.14600
C2577       C  0.76279676  0.24715886  0.04427420    -0.05500
C2578       C  0.75464069  0.23603409  0.03648028    -0.05400
C2579       C  0.75505733  0.23530553  0.02075716    -0.23500
C2580       C  0.76355617  0.24575704  0.01246921     0.18700
C2581       C  0.77172625  0.25704295  0.02014293     0.15900
C2582       C  0.77135230  0.25763972  0.03596277    -0.18600
C2583       C  0.78010854  0.26757210  0.01185361    -0.20400
C2584       C  0.78037652  0.26696663  0.99612414    -0.13000
C2585       C  0.77228830  0.25580434  0.98829491     0.03700
C2586       C  0.76393571  0.24516179  0.99664837    -0.25100
H2587       H  0.74807959  0.22770934  0.04252684     0.08800
H2588       H  0.74872464  0.22655349  0.01508171     0.12400
H2589       H  0.77758913  0.26637615  0.04176121     0.12300
H2590       H  0.78644656  0.27631748  0.01753523     0.12100
H2591       H  0.78700077  0.27527453  0.99013612     0.12600
H2592       H  0.75752159  0.23652764  0.99091662     0.14600
C2593       C  0.84218041  0.32821607  0.23331142    -0.05500
C2594       C  0.83061349  0.33009316  0.22270836    -0.05400
C2595       C  0.82101836  0.34250376  0.22339663    -0.23500
C2596       C  0.82281371  0.35331763  0.23471050     0.18700
C2597       C  0.83460531  0.35182286  0.24529780     0.15900
C2598       C  0.84421433  0.33919676  0.24458298    -0.18600
C2599       C  0.83636823  0.36288440  0.25648244    -0.20400
C2600       C  0.82614142  0.37491804  0.25751740    -0.13000
C2601       C  0.81399237  0.37598980  0.24743294     0.03700
C2602       C  0.81268184  0.36535822  0.23582451    -0.25100
H2603       H  0.82877597  0.32176424  0.21399784     0.08800
H2604       H  0.81204629  0.34353263  0.21518626     0.12400
H2605       H  0.85328566  0.33797280  0.25265610     0.12300
H2606       H  0.84539937  0.36202222  0.26463930     0.12100
H2607       H  0.82732555  0.38296908  0.26658845     0.12600
H2608       H  0.80346996  0.36622962  0.22785168     0.14600
C2609       C  0.81650266  0.27026478  0.15642483    -0.05500
C2610       C  0.82536273  0.28289548  0.15270700    -0.05400
C2611       C  0.83453726  0.28979390  0.16358273    -0.23500
C2612       C  0.83492990  0.28425580  0.17840302     0.18700
C2613       C  0.82613180  0.27154933  0.18216193     0.15900
C2614       C  0.81720873  0.26459923  0.17121289    -0.18600
C2615       C  0.82619116  0.26601582  0.19690257    -0.20400
C2616       C  0.83493050  0.27295733  0.20789309    -0.13000
C2617       C  0.84407006  0.28545219  0.20437873     0.03700
C2618       C  0.84390717  0.29113152  0.18953719    -0.25100
H2619       H  0.82512018  0.28756001  0.14145864     0.08800
H2620       H  0.84120302  0.29953883  0.16044009     0.12400
H2621       H  0.81073684  0.25479438  0.17443792     0.12300
H2622       H  0.81934567  0.25637292  0.19999081     0.12100
H2623       H  0.83432500  0.26856300  0.21923709     0.12600
H2624       H  0.85085981  0.30070154  0.18654576     0.14600
C2625       C  0.88403166  0.32000830  0.20887963    -0.05500
C2626       C  0.89003956  0.33320018  0.21518937    -0.05400
C2627       C  0.89371397  0.34558104  0.20603256    -0.23500
C2628       C  0.89134813  0.34501493  0.19039050     0.18700
C2629       C  0.88606885  0.33147909  0.18390103     0.15900
C2630       C  0.88252124  0.31909051  0.19315256    -0.18600
C2631       C  0.88366580  0.33079478  0.16834060    -0.20400
C2632       C  0.88604191  0.34348288  0.15930870    -0.13000
C2633       C  0.89083811  0.35725637  0.16556482     0.03700
C2634       C  0.89365095  0.35783935  0.18120360    -0.25100
H2635       H  0.89083417  0.33433231  0.22730155     0.08800
H2636       H  0.89775091  0.35583182  0.21126877     0.12400
H2637       H  0.87761876  0.30905427  0.18823035     0.12300
H2638       H  0.87962079  0.32051031  0.16316908     0.12100
H2639       H  0.88368932  0.34252152  0.14741155     0.12600
H2640       H  0.89747026  0.36826082  0.18625863     0.14600
C2641       C  0.70282412  0.13777369  0.24832691    -0.05500
C2642       C  0.69464358  0.13461746  0.23514432    -0.05400
C2643       C  0.68442366  0.14522861  0.22930181    -0.23500
C2644       C  0.68230462  0.15917874  0.23651732     0.18700
C2645       C  0.69039865  0.16225936  0.24982109     0.15900
C2646       C  0.70033240  0.15157676  0.25566921    -0.18600
C2647       C  0.68867201  0.17610536  0.25708294    -0.20400
C2648       C  0.67898280  0.18691717  0.25126211    -0.13000
C2649       C  0.67056520  0.18409389  0.23814966     0.03700
C2650       C  0.67237390  0.17014998  0.23072532    -0.25100
H2651       H  0.69629959  0.12409108  0.22922962     0.08800
H2652       H  0.67832689  0.14260286  0.21907800     0.12400
H2653       H  0.70613778  0.15420502  0.26603125     0.12300
H2654       H  0.69500364  0.17868245  0.26718464     0.12100
H2655       H  0.67841772  0.19768267  0.25693710     0.12600
H2656       H  0.66611631  0.16778927  0.22055650     0.14600
C2657       C  0.71287345  0.21781785  0.15614626    -0.05500
C2658       C  0.70042500  0.20887252  0.15223750    -0.05400
C2659       C  0.68882322  0.20626624  0.16265311    -0.23500
C2660       C  0.68936462  0.21284671  0.17701437     0.18700
C2661       C  0.70177195  0.22204017  0.18093567     0.15900
C2662       C  0.71349761  0.22430027  0.17056757    -0.18600
C2663       C  0.70219173  0.22895248  0.19511451    -0.20400
C2664       C  0.69041233  0.22678555  0.20535461    -0.13000
C2665       C  0.67811644  0.21752208  0.20166705     0.03700
C2666       C  0.67767553  0.21053144  0.18747196    -0.25100
H2667       H  0.69978661  0.20373745  0.14120206     0.08800
H2668       H  0.67938694  0.19920055  0.15944693     0.12400
H2669       H  0.72295141  0.23141605  0.17362050     0.12300
H2670       H  0.71161478  0.23605736  0.19827349     0.12100
H2671       H  0.69104909  0.23213342  0.21628813     0.12600
H2672       H  0.66811730  0.20352639  0.18446790     0.14600
C2673       C  0.80693934  0.14485382  0.29921463    -0.05500
C2674       C  0.82044579  0.14110679  0.30656695    -0.05400
C2675       C  0.83111982  0.15225295  0.30989409    -0.23500
C2676       C  0.82856744  0.16727504  0.30565364     0.18700
C2677       C  0.81510890  0.17107801  0.29803878     0.15900
C2678       C  0.80435253  0.15991255  0.29503138    -0.18600
C2679       C  0.81265216  0.18598023  0.29344836    -0.20400
C2680       C  0.82346248  0.19703977  0.29631741    -0.13000
C2681       C  0.83682202  0.19345296  0.30400962     0.03700
C2682       C  0.83924661  0.17854612  0.30878750    -0.25100
H2683       H  0.82265446  0.12959186  0.30992178     0.08800
H2684       H  0.84139951  0.14911557  0.31569738     0.12400
H2685       H  0.79410733  0.16293675  0.28911606     0.12300
H2686       H  0.80237653  0.18908191  0.28762009     0.12100
H2687       H  0.82122067  0.20850426  0.29280672     0.12600
H2688       H  0.84948618  0.17567535  0.31475899     0.14600
C2689       C  0.87141938  0.28338509  0.25348609    -0.05500
C2690       C  0.88579373  0.27745999  0.25691933    -0.05400
C2691       C  0.88746405  0.26609553  0.26801145    -0.23500
C2692       C  0.87480666  0.26032041  0.27582139     0.18700
C2693       C  0.86052245  0.26660803  0.27262061     0.15900
C2694       C  0.85898704  0.27792984  0.26175553    -0.18600
C2695       C  0.84768485  0.26118173  0.27990258    -0.20400
C2696       C  0.84876696  0.24940072  0.29007361    -0.13000
C2697       C  0.86271519  0.24254495  0.29355440     0.03700
C2698       C  0.87591055  0.24823906  0.28641276    -0.25100
H2699       H  0.89564626  0.28109626  0.25069879     0.08800
H2700       H  0.89859315  0.26154441  0.27017159     0.12400
H2701       H  0.84776993  0.28206361  0.25914288     0.12300
H2702       H  0.83665099  0.26588793  0.27752857     0.12100
H2703       H  0.83840220  0.24539607  0.29520779     0.12600
H2704       H  0.88677929  0.24321711  0.28877573     0.14600
C2705       C  0.74991200  0.25401861  0.49396274    -0.05500
C2706       C  0.73733463  0.26024626  0.50137344    -0.05400
C2707       C  0.73644746  0.26023277  0.51708705    -0.23500
C2708       C  0.74808154  0.25390801  0.52569084     0.18700
C2709       C  0.76055268  0.24718850  0.51835841     0.15900
C2710       C  0.76140725  0.24732082  0.50258282    -0.18600
C2711       C  0.77205710  0.24059924  0.52693614    -0.20400
C2712       C  0.77133933  0.24088436  0.54264066    -0.13000
C2713       C  0.75919818  0.24790430  0.55005655     0.03700
C2714       C  0.74753491  0.25432331  0.54148828    -0.25100
H2715       H  0.72832126  0.26549835  0.49506397     0.08800
H2716       H  0.72674753  0.26533801  0.52251011     0.12400
H2717       H  0.77105174  0.24222984  0.49706211     0.12300
H2718       H  0.78167714  0.23535246  0.52150804     0.12100
H2719       H  0.78050546  0.23592792  0.54897999     0.12600
H2720       H  0.73802413  0.25958430  0.54710174     0.14600
C2721       C  0.84104504  0.22477555  0.34218947    -0.05500
C2722       C  0.82663541  0.21828987  0.34276700    -0.05400
C2723       C  0.81671297  0.22194648  0.35442197    -0.23500
C2724       C  0.82121569  0.23195336  0.36575983     0.18700
C2725       C  0.83608063  0.23780502  0.36574101     0.15900
C2726       C  0.84588068  0.23428726  0.35381977    -0.18600
C2727       C  0.84064533  0.24752133  0.37733645    -0.20400
C2728       C  0.83032974  0.25201895  0.38840481    -0.13000
C2729       C  0.81535575  0.24697715  0.38786970     0.03700
C2730       C  0.81092349  0.23669105  0.37676065    -0.25100
H2731       H  0.82282735  0.21094337  0.33380743     0.08800
H2732       H  0.80541089  0.21727656  0.35435485     0.12400
H2733       H  0.85708617  0.23919017  0.35335601     0.12300
H2734       H  0.85202606  0.25198796  0.37757746     0.12100
H2735       H  0.83381384  0.26001455  0.39692408     0.12600
H2736       H  0.79932049  0.23279929  0.37641698     0.14600
C2737       C  0.67466107  0.32280087  0.29145540    -0.05500
C2738       C  0.68577417  0.31952669  0.28057048    -0.05400
C2739       C  0.69558676  0.33065419  0.27540916    -0.23500
C2740       C  0.69468305  0.34528949  0.28114631     0.18700
C2741       C  0.68371497  0.34879407  0.29216373     0.15900
C2742       C  0.67371563  0.33754318  0.29721899    -0.18600
C2743       C  0.68302898  0.36347236  0.29795279    -0.20400
C2744       C  0.69317183  0.37450387  0.29294482    -0.13000
C2745       C  0.70417409  0.37109773  0.28199839     0.03700
C2746       C  0.70472457  0.35639988  0.27611696    -0.25100
H2747       H  0.68717519  0.30824298  0.27620324     0.08800
H2748       H  0.70402544  0.32774550  0.26704253     0.12400
H2749       H  0.66517537  0.34032825  0.30551358     0.12300
H2750       H  0.67470793  0.36640521  0.30642433     0.12100
H2751       H  0.69236648  0.38567521  0.29771517     0.12600
H2752       H  0.71305438  0.35340789  0.26771374     0.14600
C2753       C  0.70321750  0.27818643  0.37989099    -0.05500
C2754       C  0.69215553  0.26711379  0.37760479    -0.05400
C2755       C  0.68213643  0.26827110  0.36548753    -0.23500
C2756       C  0.68293902  0.28063060  0.35564102     0.18700
C2757       C  0.69366814  0.29210702  0.35829259     0.15900
C2758       C  0.70377806  0.29075192  0.37031863    -0.18600
C2759       C  0.69436938  0.30458299  0.34865796    -0.20400
C2760       C  0.68481652  0.30550954  0.33622525    -0.13000
C2761       C  0.67441907  0.29396988  0.33317247     0.03700
C2762       C  0.67340533  0.28161248  0.34306185    -0.25100
H2763       H  0.69168051  0.25727940  0.38480719     0.08800
H2764       H  0.67396248  0.25938259  0.36365608     0.12400
H2765       H  0.71226923  0.29936529  0.37211521     0.12300
H2766       H  0.70248923  0.31350329  0.35058691     0.12100
H2767       H  0.68592492  0.31506293  0.32872506     0.12600
H2768       H  0.66523482  0.27277490  0.34096789     0.14600
C2769       C  0.65110577  0.27215355  0.28623478    -0.05500
C2770       C  0.66501112  0.26492525  0.28329460    -0.05400
C2771       C  0.66635643  0.25352838  0.27275227    -0.23500
C2772       C  0.65393552  0.24908205  0.26427477     0.18700
C2773       C  0.63972934  0.25587610  0.26666423     0.15900
C2774       C  0.63829597  0.26746587  0.27778694    -0.18600
C2775       C  0.62753844  0.25103538  0.25758653    -0.20400
C2776       C  0.62954089  0.23970588  0.24645567    -0.13000
C2777       C  0.64382187  0.23305582  0.24412133     0.03700
C2778       C  0.65583869  0.23804901  0.25320832    -0.25100
H2779       H  0.67524426  0.26847843  0.28892461     0.08800
H2780       H  0.67734256  0.24845446  0.27093565     0.12400
H2781       H  0.62757120  0.27308461  0.27939662     0.12300
H2782       H  0.61647737  0.25602005  0.25906033     0.12100
H2783       H  0.61997507  0.23624529  0.23975125     0.12600
H2784       H  0.66696142  0.23316701  0.25162303     0.14600
C2785       C  0.34948336  0.15731882  0.89877431    -0.05500
C2786       C  0.33515401  0.15135555  0.89533537    -0.05400
C2787       C  0.32284818  0.16076653  0.89248378    -0.23500
C2788       C  0.32447207  0.17643395  0.89306464     0.18700
C2789       C  0.33857394  0.18269707  0.89709496     0.15900
C2790       C  0.35101952  0.17310945  0.89989229    -0.18600
C2791       C  0.34009762  0.19845062  0.89755403    -0.20400
C2792       C  0.32811684  0.20779999  0.89311049    -0.13000
C2793       C  0.31433200  0.20160850  0.88836836     0.03700
C2794       C  0.31247560  0.18590284  0.88877820    -0.25100
H2795       H  0.33345459  0.13934492  0.89428846     0.08800
H2796       H  0.31212825  0.15576228  0.88941587     0.12400
H2797       H  0.36189966  0.17793959  0.90264479     0.12300
H2798       H  0.35079374  0.20352494  0.90056994     0.12100
H2799       H  0.32999928  0.21982744  0.89226323     0.12600
H2800       H  0.30209082  0.18102169  0.88455059     0.14600
C2801       C  0.36481482  0.89822016  0.16672956    -0.05500
C2802       C  0.37111266  0.89108194  0.17939239    -0.05400
C2803       C  0.36243728  0.88807362  0.19215267    -0.23500
C2804       C  0.34718281  0.89212038  0.19264788     0.18700
C2805       C  0.34054760  0.89942864  0.18017990     0.15900
C2806       C  0.34941147  0.90240242  0.16720363    -0.18600
C2807       C  0.32514195  0.90334747  0.18094513    -0.20400
C2808       C  0.31634398  0.89937549  0.19358140    -0.13000
C2809       C  0.32284463  0.89154853  0.20569513     0.03700
C2810       C  0.33838903  0.88849723  0.20529084    -0.25100
H2811       H  0.38277666  0.88746705  0.17938305     0.08800
H2812       H  0.36764156  0.88234565  0.20159095     0.12400
H2813       H  0.34438106  0.90795156  0.15757594     0.12300
H2814       H  0.31979190  0.90904898  0.17158495     0.12100
H2815       H  0.30435514  0.90176617  0.19357538     0.12600
H2816       H  0.34359395  0.88285776  0.21474105     0.14600
C2817       C  0.39805433  0.86340448  0.86356237    -0.05500
C2818       C  0.39534694  0.86794225  0.84859985    -0.05400
C2819       C  0.39340095  0.85735772  0.83714001    -0.23500
C2820       C  0.39412430  0.84193590  0.84030187     0.18700
C2821       C  0.39753114  0.83712562  0.85508114     0.15900
C2822       C  0.39955178  0.84787375  0.86659447    -0.18600
C2823       C  0.39804242  0.82162761  0.85822445    -0.20400
C2824       C  0.39420963  0.81110208  0.84711959    -0.13000
C2825       C  0.39015339  0.81586045  0.83262339     0.03700
C2826       C  0.39055555  0.83127761  0.82915931    -0.25100
H2827       H  0.39427433  0.87969794  0.84566849     0.08800
H2828       H  0.39086454  0.86125704  0.82586050     0.12400
H2829       H  0.40178436  0.84407162  0.87795595     0.12300
H2830       H  0.40057404  0.81768075  0.86948445     0.12100
H2831       H  0.39337055  0.79930830  0.85013472     0.12600
H2832       H  0.38684583  0.83502498  0.81814533     0.14600
C2833       C  0.38689955  0.98243575  0.89632416    -0.05500
C2834       C  0.39466857  0.98742400  0.88343341    -0.05400
C2835       C  0.39625188  0.00281277  0.88046452    -0.23500
C2836       C  0.38997790  0.01350659  0.89026061     0.18700
C2837       C  0.38158324  0.00861687  0.90289855     0.15900
C2838       C  0.38014081  0.99314289  0.90587091    -0.18600
C2839       C  0.37502508  0.01930203  0.91251841    -0.20400
C2840       C  0.37709320  0.03468881  0.90987580    -0.13000
C2841       C  0.38590339  0.03967473  0.89767818     0.03700
C2842       C  0.39217675  0.02898889  0.88779297    -0.25100
H2843       H  0.39999790  0.97945983  0.87589074     0.08800
H2844       H  0.40261968  0.00634943  0.87064881     0.12400
H2845       H  0.37389105  0.98946350  0.91570829     0.12300
H2846       H  0.36848373  0.01576119  0.92221821     0.12100
H2847       H  0.37218803  0.04268142  0.91767789     0.12600
H2848       H  0.39881966  0.03271457  0.87822707     0.14600
C2849       C  0.39624941  0.89832892  0.98506965    -0.05500
C2850       C  0.40709731  0.88810186  0.99037199    -0.05400
C2851       C  0.40903682  0.88578922  0.00582378    -0.23500
C2852       C  0.39997551  0.89346953  0.01628337     0.18700
C2853       C  0.38878319  0.90353458  0.01111009     0.15900
C2854       C  0.38710374  0.90603436  0.99554394    -0.18600
C2855       C  0.37951501  0.91093228  0.02161578    -0.20400
C2856       C  0.38148454  0.90857076  0.03709582    -0.13000
C2857       C  0.39287105  0.89890306  0.04238897     0.03700
C2858       C  0.40198692  0.89128794  0.03182329    -0.25100
H2859       H  0.41434605  0.88213813  0.98256026     0.08800
H2860       H  0.41766834  0.87801603  0.00959587     0.12400
H2861       H  0.37859612  0.91385168  0.99158060     0.12300
H2862       H  0.37080599  0.91862777  0.01786694     0.12100
H2863       H  0.37432828  0.91461428  0.04492210     0.12600
H2864       H  0.41065860  0.88359681  0.03565548     0.14600
C2865       C  0.62771933  0.15019014  0.16317384    -0.05500
C2866       C  0.63346446  0.14391364  0.17655355    -0.05400
C2867       C  0.63574909  0.15270238  0.18936253    -0.23500
C2868       C  0.63238152  0.16809152  0.18923496     0.18700
C2869       C  0.62631356  0.17471231  0.17611506     0.15900
C2870       C  0.62402334  0.16571638  0.16309868    -0.18600
C2871       C  0.62312806  0.19027447  0.17622444    -0.20400
C2872       C  0.62678620  0.19921483  0.18882328    -0.13000
C2873       C  0.63349587  0.19271753  0.20158886     0.03700
C2874       C  0.63570752  0.17704548  0.20184096    -0.25100
H2875       H  0.63663998  0.13217087  0.17712036     0.08800
H2876       H  0.64049347  0.14748275  0.19931496     0.12400
H2877       H  0.61952677  0.17079248  0.15296848     0.12300
H2878       H  0.61842018  0.19564036  0.16634296     0.12100
H2879       H  0.62525089  0.21129966  0.18822581     0.12600
H2880       H  0.64089656  0.17193232  0.21161962     0.14600
C2881       C  0.70514173  0.82111661  0.12875124    -0.05500
C2882       C  0.71001685  0.83503221  0.12303506    -0.05400
C2883       C  0.69953716  0.84618533  0.11900597    -0.23500
C2884       C  0.68396487  0.84373762  0.12094546     0.18700
C2885       C  0.67895041  0.82953056  0.12610502     0.15900
C2886       C  0.68954780  0.81831745  0.12991180    -0.18600
C2887       C  0.66345769  0.82706735  0.12819871    -0.20400
C2888       C  0.65305977  0.83869531  0.12581431    -0.13000
C2889       C  0.65783826  0.85315017  0.12128204     0.03700
C2890       C  0.67339968  0.85542865  0.11852144    -0.25100
H2891       H  0.72196187  0.83762290  0.12260824     0.08800
H2892       H  0.70365152  0.85700072  0.11510358     0.12400
H2893       H  0.68571643  0.80781385  0.13485824     0.12300
H2894       H  0.65938686  0.81623122  0.13209886     0.12100
H2895       H  0.64127674  0.83637226  0.12798908     0.12600
H2896       H  0.67738400  0.86636631  0.11485949     0.14600
C2897       C  0.53863538  0.89275563  0.12429024    -0.05500
C2898       C  0.53315322  0.88074195  0.11556043    -0.05400
C2899       C  0.51760409  0.87870993  0.11346594    -0.23500
C2900       C  0.50719007  0.88849935  0.12028293     0.18700
C2901       C  0.51255467  0.90027431  0.12954734     0.15900
C2902       C  0.52820038  0.90242002  0.13136018    -0.18600
C2903       C  0.50217370  0.90979181  0.13674976    -0.20400
C2904       C  0.48665044  0.90782052  0.13465072    -0.13000
C2905       C  0.48115088  0.89646688  0.12510315     0.03700
C2906       C  0.49153475  0.88678934  0.11795251    -0.25100
H2907       H  0.54090903  0.87316263  0.10995124     0.08800
H2908       H  0.51373209  0.86954403  0.10641221     0.12400
H2909       H  0.53225150  0.91160505  0.13829576     0.12300
H2910       H  0.50606229  0.91883034  0.14395940     0.12100
H2911       H  0.47893997  0.91547321  0.14022377     0.12600
H2912       H  0.48743633  0.87788110  0.11069351     0.14600
C2913       C  0.62848665  0.97628516  0.11721416    -0.05500
C2914       C  0.63952767  0.98122837  0.10693996    -0.05400
C2915       C  0.64232285  0.99666661  0.10489284    -0.23500
C2916       C  0.63432848  0.00746993  0.11329527     0.18700
C2917       C  0.62361492  0.00257274  0.12404688     0.15900
C2918       C  0.62065526  0.98709300  0.12580628    -0.18600
C2919       C  0.61593352  0.01324846  0.13281009    -0.20400
C2920       C  0.61861971  0.02864190  0.13081331    -0.13000
C2921       C  0.62885983  0.03377053  0.11983817     0.03700
C2922       C  0.63675674  0.02305051  0.11111788    -0.25100
H2923       H  0.64570198  0.97316598  0.10017045     0.08800
H2924       H  0.65067193  0.00015501  0.09666659     0.12400
H2925       H  0.61227344  0.98345261  0.13394242     0.12300
H2926       H  0.60774532  0.00969422  0.14117294     0.12100
H2927       H  0.61232307  0.03656884  0.13762569     0.12600
H2928       H  0.64482009  0.02681444  0.10272769     0.14600
C2929       C  0.64715411  0.12882772  0.86187979    -0.05500
C2930       C  0.64242129  0.13124635  0.84692996    -0.05400
C2931       C  0.65287887  0.13302548  0.83522944    -0.23500
C2932       C  0.66841415  0.13238675  0.83808370     0.18700
C2933       C  0.67346963  0.12957386  0.85289486     0.15900
C2934       C  0.66283868  0.12781360  0.86469017    -0.18600
C2935       C  0.68909186  0.12899778  0.85567241    -0.20400
C2936       C  0.69951624  0.13175665  0.84404565    -0.13000
C2937       C  0.69455438  0.13500763  0.82940330     0.03700
C2938       C  0.67895780  0.13506961  0.82647040    -0.25100
H2939       H  0.63057601  0.13204653  0.84416335     0.08800
H2940       H  0.64878323  0.13514794  0.82394030     0.12400
H2941       H  0.66683367  0.12587955  0.87603288     0.12300
H2942       H  0.69324852  0.12693061  0.86694427     0.12100
H2943       H  0.71145025  0.13216975  0.84665906     0.12600
H2944       H  0.67503529  0.13783593  0.81526300     0.14600
C2945       C  0.61313651  0.13251166  0.98441988    -0.05500
C2946       C  0.60231372  0.13887811  0.99419313    -0.05400
C2947       C  0.60434169  0.13877212  0.00979461    -0.23500
C2948       C  0.61721493  0.13221008  0.01612411     0.18700
C2949       C  0.62829704  0.12587872  0.00652886     0.15900
C2950       C  0.62626895  0.12617790  0.99075865    -0.18600
C2951       C  0.64101822  0.11899460  0.01292122    -0.20400
C2952       C  0.64241965  0.11786734  0.02858400    -0.13000
C2953       C  0.63135796  0.12392788  0.03821588     0.03700
C2954       C  0.61894059  0.13144973  0.03189054    -0.25100
H2955       H  0.59216191  0.14403809  0.98986025     0.08800
H2956       H  0.59570228  0.14366388  0.01693047     0.12400
H2957       H  0.63472535  0.12115625  0.98351087     0.12300
H2958       H  0.64967427  0.11409529  0.00581599     0.12100
H2959       H  0.65209122  0.11202820  0.03321573     0.12600
H2960       H  0.61024376  0.13596765  0.03921171     0.14600
C2961       C  0.52698479  0.13731670  0.89909267    -0.05500
C2962       C  0.51775475  0.14709792  0.90750356    -0.05400
C2963       C  0.50202009  0.14666437  0.90612684    -0.23500
C2964       C  0.49512197  0.13620751  0.89652378     0.18700
C2965       C  0.50426968  0.12639018  0.88789468     0.15900
C2966       C  0.52013750  0.12716664  0.88903951    -0.18600
C2967       C  0.49736662  0.11566939  0.87859777    -0.20400
C2968       C  0.48161825  0.11442855  0.87813512    -0.13000
C2969       C  0.47236076  0.12400641  0.88678132     0.03700
C2970       C  0.47925076  0.13510818  0.89575274    -0.25100
H2971       H  0.52273221  0.15509704  0.91523985     0.08800
H2972       H  0.49523688  0.15429400  0.91283206     0.12400
H2973       H  0.52710155  0.11945327  0.88261394     0.12300
H2974       H  0.50414843  0.10803548  0.87189664     0.12100
H2975       H  0.47668198  0.10587621  0.87099563     0.12600
H2976       H  0.47231636  0.14248340  0.90258933     0.14600
C2977       C  0.36474654  0.34981274  0.62807206    -0.05500
C2978       C  0.36952169  0.33713245  0.63629253    -0.05400
C2979       C  0.35962784  0.32526124  0.63936757    -0.23500
C2980       C  0.34467870  0.32571911  0.63426309     0.18700
C2981       C  0.33979603  0.33797063  0.62537469     0.15900
C2982       C  0.34987373  0.34998813  0.62232681    -0.18600
C2983       C  0.32468810  0.33830493  0.62044810    -0.20400
C2984       C  0.31425578  0.32744142  0.62550865    -0.13000
C2985       C  0.31884663  0.31591364  0.63529610     0.03700
C2986       C  0.33428196  0.31467126  0.63886915    -0.25100
H2987       H  0.38079563  0.33661029  0.64093245     0.08800
H2988       H  0.36353688  0.31595324  0.64622170     0.12400
H2989       H  0.34605123  0.35958878  0.61583985     0.12300
H2990       H  0.32071608  0.34750283  0.61349200     0.12100
H2991       H  0.30241177  0.32879286  0.62281866     0.12600
H2992       H  0.33790475  0.30590291  0.64656283     0.14600
C2993       C  0.36256290  0.62605766  0.37504123    -0.05500
C2994       C  0.34769092  0.62957803  0.37950461    -0.05400
C2995       C  0.33638155  0.63249624  0.36888575    -0.23500
C2996       C  0.33952999  0.63189480  0.35342303     0.18700
C2997       C  0.35428158  0.62813477  0.34862191     0.15900
C2998       C  0.36571312  0.62530820  0.35942595    -0.18600
C2999       C  0.35735202  0.62753696  0.33308152    -0.20400
C3000       C  0.34606877  0.63096160  0.32249870    -0.13000
C3001       C  0.33145514  0.63497840  0.32717595     0.03700
C3002       C  0.32826789  0.63536298  0.34270961    -0.25100
H3003       H  0.34473303  0.63038056  0.39129078     0.08800
H3004       H  0.32515363  0.63537018  0.37280595     0.12400
H3005       H  0.37701051  0.62255414  0.35564869     0.12300
H3006       H  0.36858184  0.62476419  0.32910683     0.12100
H3007       H  0.34892149  0.63108135  0.31063525     0.12600
H3008       H  0.31713002  0.63878328  0.34644659     0.14600
C3009       C  0.61778149  0.35864395  0.35751306    -0.05500
C3010       C  0.62086204  0.36480786  0.34320225    -0.05400
C3011       C  0.62448249  0.35561999  0.33092834    -0.23500
C3012       C  0.62504297  0.33994060  0.33251198     0.18700
C3013       C  0.62138181  0.33340039  0.34656250     0.15900
C3014       C  0.61782177  0.34277280  0.35899648    -0.18600
C3015       C  0.62194547  0.31763118  0.34801201    -0.20400
C3016       C  0.62687053  0.30859192  0.33596816    -0.13000
C3017       C  0.63124250  0.31508680  0.32220072     0.03700
C3018       C  0.62997694  0.33078677  0.32048940    -0.25100
H3019       H  0.62095726  0.37684980  0.34144798     0.08800
H3020       H  0.62719236  0.36084481  0.32023030     0.12400
H3021       H  0.61536008  0.33771019  0.36981948     0.12300
H3022       H  0.61923988  0.31233255  0.35866860     0.12100
H3023       H  0.62834269  0.29661576  0.33777188     0.12600
H3024       H  0.63383309  0.33596140  0.31010822     0.14600
C3025       C  0.66226858  0.65200250  0.39795649    -0.05500
C3026       C  0.67523537  0.64670142  0.39044742    -0.05400
C3027       C  0.68727937  0.65633585  0.38706311    -0.23500
C3028       C  0.68679906  0.67154611  0.39124852     0.18700
C3029       C  0.67401674  0.67710163  0.39902143     0.15900
C3030       C  0.66174610  0.66733576  0.40220426    -0.18600
C3031       C  0.67372007  0.69237417  0.40325757    -0.20400
C3032       C  0.68566995  0.70208085  0.39936177    -0.13000
C3033       C  0.69817403  0.69672617  0.39121333     0.03700
C3034       C  0.69873210  0.68135689  0.38741847    -0.25100
H3035       H  0.67598950  0.63507703  0.38686590     0.08800
H3036       H  0.69695522  0.65188584  0.38104806     0.12400
H3037       H  0.65190314  0.67161737  0.40806602     0.12300
H3038       H  0.66406253  0.69691022  0.40922672     0.12100
H3039       H  0.68480316  0.71394527  0.40205753     0.12600
H3040       H  0.70829924  0.67712979  0.38110962     0.14600
C3041       C  0.62338902  0.53331105  0.40248538    -0.05500
C3042       C  0.63355863  0.52719828  0.41295338    -0.05400
C3043       C  0.63503462  0.51155794  0.41454449    -0.23500
C3044       C  0.62652785  0.50172482  0.40553238     0.18700
C3045       C  0.61671094  0.50775029  0.39456791     0.15900
C3046       C  0.61512457  0.52346336  0.39319305    -0.18600
C3047       C  0.60847368  0.49794814  0.38531053    -0.20400
C3048       C  0.60963362  0.48232725  0.38714037    -0.13000
C3049       C  0.61894311  0.47615275  0.39835791     0.03700
C3050       C  0.62751806  0.48599843  0.40741513    -0.25100
H3051       H  0.64001577  0.53451397  0.42025972     0.08800
H3052       H  0.64269357  0.50715510  0.42295933     0.12400
H3053       H  0.60740412  0.52802849  0.38491462     0.12300
H3054       H  0.60097280  0.50236765  0.37676181     0.12100
H3055       H  0.60289615  0.47509891  0.38001074     0.12600
H3056       H  0.63495109  0.48146182  0.41595494     0.14600
C3057       C  0.53887007  0.62018524  0.39905237    -0.05500
C3058       C  0.53001220  0.61342690  0.38780712    -0.05400
C3059       C  0.51423084  0.61424446  0.38828810    -0.23500
C3060       C  0.50691653  0.62149309  0.40028233     0.18700
C3061       C  0.51570743  0.62851494  0.41156801     0.15900
C3062       C  0.53162919  0.62808010  0.41073410    -0.18600
C3063       C  0.50841321  0.63537613  0.42378057    -0.20400
C3064       C  0.49266249  0.63493634  0.42503650    -0.13000
C3065       C  0.48374316  0.62781618  0.41402156     0.03700
C3066       C  0.49100570  0.62137869  0.40145374    -0.25100
H3067       H  0.53534516  0.60730950  0.37868557     0.08800
H3068       H  0.50774540  0.60880273  0.37951185     0.12400
H3069       H  0.53834520  0.63314948  0.41956904     0.12300
H3070       H  0.51490626  0.64082096  0.43255020     0.12100
H3071       H  0.48746986  0.64019920  0.43473634     0.12600
H3072       H  0.48435472  0.61576590  0.39291043     0.14600
C3073       C  0.69840258  0.38583946  0.70237135    -0.05500
C3074       C  0.68575480  0.39406081  0.70720487    -0.05400
C3075       C  0.67410968  0.39766317  0.69709444    -0.23500
C3076       C  0.67489985  0.39307075  0.68195179     0.18700
C3077       C  0.68792720  0.38539364  0.67687326     0.15900
C3078       C  0.69953576  0.38182389  0.68709301    -0.18600
C3079       C  0.68890945  0.38094552  0.66176047    -0.20400
C3080       C  0.67698689  0.38373192  0.65182701    -0.13000
C3081       C  0.66367796  0.39087119  0.65675761     0.03700
C3082       C  0.66279620  0.39565978  0.67189924    -0.25100
H3083       H  0.68451041  0.39698979  0.71897716     0.08800
H3084       H  0.66426846  0.40361769  0.70123274     0.12400
H3085       H  0.70924976  0.37546035  0.68328656     0.12300
H3086       H  0.69882147  0.37507445  0.65765958     0.12100
H3087       H  0.67804818  0.37984662  0.64032840     0.12600
H3088       H  0.65271084  0.40132354  0.67586569     0.14600
C3089       C  0.53980410  0.39244030  0.62955154    -0.05500
C3090       C  0.53499248  0.40253996  0.64075948    -0.05400
C3091       C  0.51955806  0.40498108  0.64338616    -0.23500
C3092       C  0.50862321  0.39715359  0.63504008     0.18700
C3093       C  0.51335961  0.38655523  0.62414280     0.15900
C3094       C  0.52885738  0.38438444  0.62137651    -0.18600
C3095       C  0.50251074  0.37837329  0.61609073    -0.20400
C3096       C  0.48711501  0.38074239  0.61867596    -0.13000
C3097       C  0.48219704  0.39152683  0.62917017     0.03700
C3098       C  0.49306491  0.39973709  0.63733909    -0.25100
H3099       H  0.54316744  0.40892136  0.64717556     0.08800
H3100       H  0.51617871  0.41307718  0.65186901     0.12400
H3101       H  0.53240038  0.37640169  0.61284399     0.12300
H3102       H  0.50593202  0.37015743  0.60773671     0.12100
H3103       H  0.47902719  0.37434855  0.61216527     0.12600
H3104       H  0.48942269  0.40798405  0.64557176     0.14600
C3105       C  0.62252619  0.39141295  0.53878445    -0.05500
C3106       C  0.63415406  0.40051873  0.53298563    -0.05400
C3107       C  0.63634256  0.40191598  0.51742844    -0.23500
C3108       C  0.62708788  0.39405188  0.50731501     0.18700
C3109       C  0.61571544  0.38441821  0.51297217     0.15900
C3110       C  0.61340150  0.38327931  0.52864441    -0.18600
C3111       C  0.60676031  0.37622124  0.50282929    -0.20400
C3112       C  0.60878556  0.37784586  0.48725019    -0.13000
C3113       C  0.61962611  0.38787771  0.48149059     0.03700
C3114       C  0.62887391  0.39582336  0.49165344    -0.25100
H3115       H  0.64132877  0.40691744  0.54047909     0.08800
H3116       H  0.64519644  0.40927048  0.51330476     0.12400
H3117       H  0.60453624  0.37603138  0.53293300     0.12300
H3118       H  0.59805440  0.36868831  0.50694162     0.12100
H3119       H  0.60149431  0.37164312  0.47969969     0.12600
H3120       H  0.63742035  0.40345098  0.48737180     0.14600
C3121       C  0.39095312  0.65017961  0.67692674    -0.05500
C3122       C  0.38693687  0.64501889  0.69138973    -0.05400
C3123       C  0.38405108  0.65510582  0.70314114    -0.23500
C3124       C  0.38516202  0.67067421  0.70082011     0.18700
C3125       C  0.38960942  0.67615091  0.68654758     0.15900
C3126       C  0.39245759  0.66588559  0.67467779    -0.18600
C3127       C  0.39056104  0.69181770  0.68430969    -0.20400
C3128       C  0.38638313  0.70187188  0.69581535    -0.13000
C3129       C  0.38140410  0.69647782  0.70983525     0.03700
C3130       C  0.38114668  0.68083633  0.71232806    -0.25100
H3131       H  0.38558434  0.63312568  0.69363036     0.08800
H3132       H  0.38062748  0.65070440  0.71400609     0.12400
H3133       H  0.39563542  0.67015079  0.66369569     0.12300
H3134       H  0.39387131  0.69629649  0.67344759     0.12100
H3135       H  0.38605873  0.71383153  0.69343133     0.12600
H3136       H  0.37680083  0.67657171  0.72292905     0.14600
C3137       C  0.39332731  0.61922877  0.55423093    -0.05500
C3138       C  0.40482997  0.62908485  0.54955628    -0.05400
C3139       C  0.40781969  0.63133159  0.53421965    -0.23500
C3140       C  0.39915128  0.62400746  0.52320864     0.18700
C3141       C  0.38715655  0.61453097  0.52774674     0.15900
C3142       C  0.38445034  0.61203901  0.54321115    -0.18600
C3143       C  0.37819274  0.60760224  0.51671858    -0.20400
C3144       C  0.38127930  0.60974700  0.50137280    -0.13000
C3145       C  0.39353788  0.61867632  0.49668560     0.03700
C3146       C  0.40235488  0.62589295  0.50776056    -0.25100
H3147       H  0.41186307  0.63468448  0.55778864     0.08800
H3148       H  0.41701290  0.63871360  0.53097184     0.12400
H3149       H  0.37543951  0.60452563  0.54668063     0.12300
H3150       H  0.36885274  0.60040344  0.51996095     0.12100
H3151       H  0.37429669  0.60405151  0.49317020     0.12600
H3152       H  0.41170037  0.63301968  0.50438141     0.14600
C3153       C  0.39133684  0.47368977  0.63293967    -0.05500
C3154       C  0.37981656  0.47937093  0.62368613    -0.05400
C3155       C  0.37719272  0.49491354  0.62271578    -0.23500
C3156       C  0.38592774  0.50507835  0.63112179     0.18700
C3157       C  0.39709464  0.49946894  0.64096061     0.15900
C3158       C  0.39977986  0.48386312  0.64173978    -0.18600
C3159       C  0.40557712  0.50959283  0.64965760    -0.20400
C3160       C  0.40333376  0.52515153  0.64829784    -0.13000
C3161       C  0.39273041  0.53091067  0.63806211     0.03700
C3162       C  0.38389240  0.52074597  0.62965386    -0.25100
H3163       H  0.37315181  0.47183545  0.61679958     0.08800
H3164       H  0.36848831  0.49899632  0.61520417     0.12400
H3165       H  0.40852621  0.47966348  0.64913843     0.12300
H3166       H  0.41412061  0.50548984  0.65734027     0.12100
H3167       H  0.41029611  0.53270043  0.65487259     0.12600
H3168       H  0.37551478  0.52502720  0.62188113     0.14600
C3169       C  0.15952078  0.15330745  0.62789941    -0.05500
C3170       C  0.17212736  0.14875636  0.63637659    -0.05400
C3171       C  0.18354074  0.15896737  0.64009287    -0.23500
C3172       C  0.18274537  0.17398479  0.63531053     0.18700
C3173       C  0.17045118  0.17871766  0.62636598     0.15900
C3174       C  0.15884282  0.16837000  0.62280099    -0.18600
C3175       C  0.16983479  0.19382248  0.62157181    -0.20400
C3176       C  0.18083258  0.20424497  0.62623560    -0.13000
C3177       C  0.19266693  0.19971860  0.63568758     0.03700
C3178       C  0.19371240  0.18447790  0.63988093    -0.25100
H3179       H  0.17299481  0.13735037  0.64056384     0.08800
H3180       H  0.19289981  0.15515296  0.64696602     0.12400
H3181       H  0.14927788  0.17205449  0.61614926     0.12300
H3182       H  0.16052899  0.19770899  0.61467707     0.12100
H3183       H  0.17960122  0.21599286  0.62321286     0.12600
H3184       H  0.20267208  0.18096380  0.64742402     0.14600
C3185       C  0.86190616  0.12446371  0.66890169    -0.05500
C3186       C  0.86810474  0.12680321  0.68332048    -0.05400
C3187       C  0.85899417  0.12725031  0.69617961    -0.23500
C3188       C  0.84333779  0.12543921  0.69508607     0.18700
C3189       C  0.83677384  0.12280060  0.68085247     0.15900
C3190       C  0.84609297  0.12228149  0.66782516    -0.18600
C3191       C  0.82096136  0.12129785  0.67993605    -0.20400
C3192       C  0.81180356  0.12338482  0.69276364    -0.13000
C3193       C  0.81828034  0.12664818  0.70681217     0.03700
C3194       C  0.83411088  0.12706268  0.70792134    -0.25100
H3195       H  0.88006803  0.12865100  0.68478672     0.08800
H3196       H  0.86420628  0.12938705  0.70699614     0.12400
H3197       H  0.84101012  0.12041162  0.65690937     0.12300
H3198       H  0.81562256  0.11928332  0.66916532     0.12100
H3199       H  0.79964369  0.12348488  0.69150522     0.12600
H3200       H  0.83920440  0.12972987  0.71867072     0.14600
C3201       C  0.97939995  0.12793118  0.62613365    -0.05500
C3202       C  0.98460520  0.11933971  0.63838454    -0.05400
C3203       C  0.00003568  0.11656188  0.64036384    -0.23500
C3204       C  0.01067815  0.12242621  0.63022085     0.18700
C3205       C  0.00572064  0.13156219  0.61817989     0.15900
C3206       C  0.99013946  0.13417004  0.61614875    -0.18600
C3207       C  0.01644804  0.13778623  0.60829622    -0.20400
C3208       C  0.03187167  0.13474784  0.61015000    -0.13000
C3209       C  0.03685849  0.12518998  0.62172506     0.03700
C3210       C  0.02616240  0.11915383  0.63180831    -0.25100
H3211       H  0.97673135  0.11437945  0.64628454     0.08800
H3212       H  0.00363102  0.10965916  0.64975746     0.12400
H3213       H  0.98641798  0.14102872  0.60677989     0.12300
H3214       H  0.01290119  0.14489664  0.59904171     0.12100
H3215       H  0.03987797  0.13949486  0.60223089     0.12600
H3216       H  0.02990454  0.11192071  0.64089954     0.14600
C3217       C  0.12281117  0.85397842  0.66258874    -0.05500
C3218       C  0.12981360  0.84141796  0.65591024    -0.05400
C3219       C  0.13499942  0.82942442  0.66464821    -0.23500
C3220       C  0.13317519  0.82958740  0.68030458     0.18700
C3221       C  0.12564757  0.84179721  0.68724139     0.15900
C3222       C  0.12061115  0.85402073  0.67833997    -0.18600
C3223       C  0.12378545  0.84171523  0.70298773    -0.20400
C3224       C  0.13008844  0.83013692  0.71176899    -0.13000
C3225       C  0.13826692  0.81845183  0.70493459     0.03700
C3226       C  0.13939803  0.81805753  0.68916558    -0.25100
H3227       H  0.13177837  0.84104647  0.64388850     0.08800
H3228       H  0.14073073  0.82013649  0.65916068     0.12400
H3229       H  0.11511687  0.86355505  0.68363934     0.12300
H3230       H  0.11798470  0.85090402  0.70855731     0.12100
H3231       H  0.12938352  0.83079984  0.72392212     0.12600
H3232       H  0.14590590  0.80916731  0.68385226     0.14600
C3233       C  0.12056966  0.97765918  0.63290729    -0.05500
C3234       C  0.11298892  0.98362681  0.64547559    -0.05400
C3235       C  0.11103629  0.99922794  0.64703514    -0.23500
C3236       C  0.11679004  0.00918624  0.63614441     0.18700
C3237       C  0.12503564  0.00335193  0.62382750     0.15900
C3238       C  0.12680135  0.98768852  0.62225890    -0.18600
C3239       C  0.13120770  0.01327853  0.61315566    -0.20400
C3240       C  0.12906163  0.02883169  0.61454985    -0.13000
C3241       C  0.12041940  0.03473769  0.62642426     0.03700
C3242       C  0.11432919  0.02483905  0.63724228    -0.25100
H3243       H  0.10809681  0.97621977  0.65385077     0.08800
H3244       H  0.10483122  0.00349075  0.65665366     0.12400
H3245       H  0.13294692  0.98332779  0.61264947     0.12300
H3246       H  0.13760987  0.00900856  0.60366905     0.12100
H3247       H  0.13379341  0.03624875  0.60608071     0.12600
H3248       H  0.10776825  0.02933904  0.64652212     0.14600
C3249       C  0.15978004  0.89422594  0.37115814    -0.05500
C3250       C  0.17176223  0.88522379  0.37632723    -0.05400
C3251       C  0.18436472  0.88236310  0.36728680    -0.23500
C3252       C  0.18549277  0.88862780  0.35285547     0.18700
C3253       C  0.17379963  0.89801045  0.34746928     0.15900
C3254       C  0.16085576  0.90060893  0.35659220    -0.18600
C3255       C  0.17528144  0.90439223  0.33300122    -0.20400
C3256       C  0.18784398  0.90098482  0.32382139    -0.13000
C3257       C  0.19913225  0.89111257  0.32891216     0.03700
C3258       C  0.19796609  0.88526137  0.34360048    -0.25100
H3259       H  0.17126949  0.88008505  0.38737473     0.08800
H3260       H  0.19322666  0.87514013  0.37158290     0.12400
H3261       H  0.15178784  0.90767966  0.35248167     0.12300
H3262       H  0.16653152  0.91169086  0.32862477     0.12100
H3263       H  0.18833379  0.90541418  0.31247147     0.12600
H3264       H  0.20656280  0.87755669  0.34762371     0.14600
C3265       C  0.11842083  0.89436853  0.48910538    -0.05500
C3266       C  0.12862904  0.90492504  0.49502596    -0.05400
C3267       C  0.12944861  0.90743353  0.51056554    -0.23500
C3268       C  0.12020325  0.89930061  0.52052660     0.18700
C3269       C  0.11022649  0.88832319  0.51477649     0.15900
C3270       C  0.10934834  0.88598088  0.49913374    -0.18600
C3271       C  0.10121907  0.87996112  0.52477516    -0.20400
C3272       C  0.10200136  0.88253022  0.54031115    -0.13000
C3273       C  0.11164423  0.89364655  0.54614402     0.03700
C3274       C  0.12074293  0.90198700  0.53612274    -0.25100
H3275       H  0.13569082  0.91158437  0.48761682     0.08800
H3276       H  0.13722684  0.91584529  0.51478252     0.12400
H3277       H  0.10157295  0.87763525  0.49478697     0.12300
H3278       H  0.09352745  0.87146139  0.52057719     0.12100
H3279       H  0.09484036  0.87600183  0.54774634     0.12600
H3280       H  0.12839487  0.91045545  0.54045306     0.14600
C3281       C  0.89064033  0.15299076  0.36241018    -0.05500
C3282       C  0.88534821  0.14765410  0.34844700    -0.05400
C3283       C  0.88279625  0.15748991  0.33641067    -0.23500
C3284       C  0.88544050  0.17296762  0.33797658     0.18700
C3285       C  0.89125799  0.17853616  0.35168020     0.15900
C3286       C  0.89386496  0.16852526  0.36379592    -0.18600
C3287       C  0.89365591  0.19412332  0.35321588    -0.20400
C3288       C  0.88922681  0.20411829  0.34177665    -0.13000
C3289       C  0.88262494  0.19870887  0.32847861     0.03700
C3290       C  0.88141084  0.18304945  0.32641950    -0.25100
H3291       H  0.88270807  0.13587779  0.34684908     0.08800
H3292       H  0.87830095  0.15302135  0.32599231     0.12400
H3293       H  0.89806828  0.17290908  0.37435877     0.12300
H3294       H  0.89809969  0.19866245  0.36362014     0.12100
H3295       H  0.88978214  0.21612777  0.34384433     0.12600
H3296       H  0.87607052  0.17879957  0.31631534     0.14600
C3297       C  0.89310162  0.12871904  0.48661398    -0.05500
C3298       C  0.90244805  0.14063630  0.49126813    -0.05400
C3299       C  0.90394165  0.14419327  0.50658787    -0.23500
C3300       C  0.89592924  0.13605708  0.51758659     0.18700
C3301       C  0.88602474  0.12447018  0.51301390     0.15900
C3302       C  0.88479024  0.12078653  0.49762526    -0.18600
C3303       C  0.87766462  0.11661953  0.52394332    -0.20400
C3304       C  0.87940143  0.11989588  0.53927575    -0.13000
C3305       C  0.88971642  0.13091365  0.54406191     0.03700
C3306       C  0.89782045  0.13911291  0.53306739    -0.25100
H3307       H  0.90896912  0.14693901  0.48309043     0.08800
H3308       H  0.91150140  0.15320815  0.50984273     0.12400
H3309       H  0.87733698  0.11173082  0.49423434     0.12300
H3310       H  0.86992769  0.10776891  0.52064760     0.12100
H3311       H  0.87307639  0.11337336  0.54743595     0.12600
H3312       H  0.90568925  0.14777175  0.53656227     0.14600
C3313       C  0.85825787  0.86173983  0.39636215    -0.05500
C3314       C  0.84398425  0.86630093  0.39108548    -0.05400
C3315       C  0.83244530  0.85582360  0.38864050    -0.23500
C3316       C  0.83481260  0.84048437  0.39149172     0.18700
C3317       C  0.84888794  0.83570373  0.39726123     0.15900
C3318       C  0.86052682  0.84634069  0.39963431    -0.18600
C3319       C  0.85121887  0.82028512  0.40001683    -0.20400
C3320       C  0.84002502  0.80970150  0.39641002    -0.13000
C3321       C  0.82620859  0.81433572  0.39025738     0.03700
C3322       C  0.82358497  0.82978682  0.38803114    -0.25100
H3323       H  0.84178942  0.87796852  0.38836546     0.08800
H3324       H  0.82173858  0.85970557  0.38420999     0.12400
H3325       H  0.87137086  0.84259198  0.40382935     0.12300
H3326       H  0.86192385  0.81634866  0.40439345     0.12100
H3327       H  0.84244092  0.79781212  0.39769878     0.12600
H3328       H  0.81314127  0.83337569  0.38277962     0.14600
C3329       C  0.89462827  0.98142912  0.39017537    -0.05500
C3330       C  0.90156716  0.99068747  0.37933869    -0.05400
C3331       C  0.90039866  0.00637827  0.38017820    -0.23500
C3332       C  0.89256316  0.01318088  0.39210521     0.18700
C3333       C  0.88535336  0.00399820  0.40297692     0.15900
C3334       C  0.88617592  0.98817541  0.40178537    -0.18600
C3335       C  0.87789968  0.01081540  0.41513675    -0.20400
C3336       C  0.87794568  0.02650329  0.41674578    -0.13000
C3337       C  0.88520041  0.03577444  0.40610164     0.03700
C3338       C  0.89224472  0.02898375  0.39360318    -0.25100
H3339       H  0.90803724  0.98575776  0.37022964     0.08800
H3340       H  0.90597999  0.01319779  0.37171706     0.12400
H3341       H  0.88090149  0.98115588  0.41028529     0.12300
H3342       H  0.87230127  0.00400164  0.42359089     0.12100
H3343       H  0.87227330  0.03138249  0.42638471     0.12600
H3344       H  0.89799285  0.03593193  0.38536082     0.14600
C3345       C  0.98053353  0.89603789  0.38802929    -0.05500
C3346       C  0.98952637  0.90378018  0.37748369    -0.05400
C3347       C  0.00530997  0.90304953  0.37808400    -0.23500
C3348       C  0.01250308  0.89479245  0.38945547     0.18700
C3349       C  0.00358928  0.88673391  0.39997046     0.15900
C3350       C  0.98768203  0.88718905  0.39904788    -0.18600
C3351       C  0.01073920  0.87874014  0.41152501    -0.20400
C3352       C  0.02646924  0.87902079  0.41289820    -0.13000
C3353       C  0.03553227  0.88717475  0.40268211     0.03700
C3354       C  0.02840690  0.89482509  0.39075731    -0.25100
H3355       H  0.98431472  0.91057143  0.36880094     0.08800
H3356       H  0.01188594  0.90926818  0.36987472     0.12400
H3357       H  0.98090022  0.88127909  0.40732637     0.12300
H3358       H  0.00415026  0.87247263  0.41968812     0.12100
H3359       H  0.03151777  0.87279730  0.42206889     0.12600
H3360       H  0.03515166  0.90122828  0.38283086     0.14600
loop_ 
_geom_bond_atom_site_label_1 
_geom_bond_atom_site_label_2 
_geom_bond_distance 
_geom_bond_site_symmetry_2 
_ccdc_geom_bond_type 
N1            N2   1.323       .  A
N1            C5   1.354       .  A
N1           Cu9   2.111       .  S
N2            C3   1.343       .  A
N2           Cu8   2.074       .  S
C3            C4   1.383       .  A
C3            H6   1.082       .  S
C4            C5   1.394       .  A
C4         C3345   1.490       .  S
C5            H7   1.082       .  S
Cu8          N11   2.073       .  S
Cu9          N19   2.112       .  S
Cu10         N12   2.095       .  S
Cu10         N18   2.096       .  S
N11          N12   1.321       .  A
N11          C15   1.344       .  A
N12          C13   1.352       .  A
C13          C14   1.391       .  A
C13          H16   1.082       .  S
C14          C15   1.385       .  A
C14        C3329   1.486       .  S
C15          H17   1.082       .  S
N18          N19   1.325       .  A
N18          C22   1.346       .  A
N19          C20   1.353       .  A
C20          C21   1.393       .  A
C20          H23   1.082       .  S
C21          C22   1.389       .  A
C21        C3313   1.498       .  S
C22          H24   1.081       .  S
N25          N26   1.323       .  A
N25          C29   1.353       .  A
N25         Cu33   2.111       .  S
N26          C27   1.346       .  A
N26         Cu32   2.082       .  S
C27          C28   1.386       .  A
C27          H30   1.082       .  S
C28          C29   1.394       .  A
C28        C3297   1.494       .  S
C29          H31   1.082       .  S
Cu32         N35   2.081       .  S
Cu33         N43   2.111       .  S
Cu34         N36   2.093       .  S
Cu34         N42   2.095       .  S
N35          N36   1.321       .  A
N35          C39   1.346       .  A
N36          C37   1.350       .  A
C37          C38   1.391       .  A
C37          H40   1.082       .  S
C38          C39   1.388       .  A
C38        C3337   1.491       .  S
C39          H41   1.082       .  S
N42          N43   1.324       .  A
N42          C46   1.347       .  A
N43          C44   1.352       .  A
C44          C45   1.394       .  A
C44          H47   1.081       .  S
C45          C46   1.391       .  A
C45        C3281   1.501       .  S
C46          H48   1.081       .  S
N49          N50   1.323       .  A
N49          C53   1.356       .  A
N49         Cu57   2.125       .  S
N50          C51   1.341       .  A
N50         Cu56   2.062       .  S
C51          C52   1.383       .  A
C51          H54   1.081       .  S
C52          C53   1.398       .  A
C52        C3353   1.496       .  S
C53          H55   1.082       .  S
Cu56         N59   2.061       .  S
Cu57         N67   2.126       .  S
Cu58         N60   2.098       .  S
Cu58         N66   2.101       .  S
N59          N60   1.319       .  A
N59          C63   1.343       .  A
N60          C61   1.351       .  A
C61          C62   1.395       .  A
C61          H64   1.082       .  S
C62          C63   1.384       .  A
C62        C3265   1.489       .  S
C63          H65   1.082       .  S
N66          N67   1.327       .  A
N66          C70   1.346       .  A
N67          C68   1.357       .  A
C68          C69   1.394       .  A
C68          H71   1.082       .  S
C69          C70   1.387       .  A
C69        C3249   1.498       .  S
C70          H72   1.082       .  S
N73          N74   1.319       .  A
N73          C77   1.350       .  A
N73         Cu81   2.091       .  S
N74          C75   1.344       .  A
N74         Cu80   2.063       .  S
C75          C76   1.385       .  A
C75          H78   1.082       .  S
C76          C77   1.392       .  A
C76        C3273   1.487       .  S
C77          H79   1.082       .  S
Cu80         N83   2.063       .  S
Cu81         N91   2.093       .  S
Cu82         N84   2.111       .  S
Cu82         N90   2.111       .  S
N83          N84   1.322       .  A
N83          C87   1.341       .  A
N84          C85   1.353       .  A
C85          C86   1.396       .  A
C85          H88   1.082       .  S
C86          C87   1.382       .  A
C86        C3233   1.491       .  S
C87          H89   1.082       .  S
N90          N91   1.326       .  A
N90          C94   1.354       .  A
N91          C92   1.345       .  A
C92          C93   1.386       .  A
C92          H95   1.082       .  S
C93          C94   1.392       .  A
C93        C3217   1.493       .  S
C94          H96   1.082       .  S
N97          N98   1.325       .  A
N97         C101   1.353       .  A
N97        Cu105   2.124       .  S
N98          C99   1.346       .  A
N98        Cu104   2.079       .  S
C99         C100   1.383       .  A
C99         H102   1.082       .  S
C100        C101   1.395       .  A
C100       C3305   1.493       .  S
C101        H103   1.082       .  S
Cu104       N107   2.079       .  S
Cu105       N115   2.123       .  S
Cu106       N108   2.096       .  S
Cu106       N114   2.096       .  S
N107        N108   1.320       .  A
N107        C111   1.348       .  A
N108        C109   1.349       .  A
C109        C110   1.393       .  A
C109        H112   1.081       .  S
C110        C111   1.389       .  A
C110       C3201   1.496       .  S
C111        H113   1.081       .  S
N114        N115   1.324       .  A
N114        C118   1.345       .  A
N115        C116   1.357       .  A
C116        C117   1.398       .  A
C116        H119   1.082       .  S
C117        C118   1.392       .  A
C117       C3185   1.508       .  S
C118        H120   1.081       .  S
N121        N122   1.323       .  A
N121        C125   1.349       .  A
N121       Cu129   2.094       .  S
N122        C123   1.348       .  A
N122       Cu128   2.084       .  S
C123        C124   1.385       .  A
C123        H126   1.082       .  S
C124        C125   1.388       .  A
C124       C3241   1.484       .  S
C125        H127   1.082       .  S
Cu128       N131   2.085       .  S
Cu129       N139   2.095       .  S
Cu130       N132   2.103       .  S
Cu130       N138   2.103       .  S
N131        N132   1.324       .  A
N131        C135   1.347       .  A
N132        C133   1.351       .  A
C133        C134   1.390       .  A
C133        H136   1.082       .  S
C134        C135   1.385       .  A
C134       C3209   1.488       .  S
C135        H137   1.082       .  S
N138        N139   1.324       .  A
N138        C142   1.352       .  A
N139        C140   1.347       .  A
C140        C141   1.390       .  A
C140        H143   1.082       .  S
C141        C142   1.391       .  A
C141       C3169   1.496       .  S
C142        H144   1.082       .  S
N145        N146   1.323       .  A
N145        C149   1.351       .  A
N145       Cu153   2.108       .  S
N146        C147   1.347       .  A
N146       Cu152   2.077       .  S
C147        C148   1.385       .  A
C147        H150   1.082       .  S
C148        C149   1.392       .  A
C148       C3137   1.489       .  S
C149        H151   1.082       .  S
Cu152       N155   2.077       .  S
Cu153       N163   2.108       .  S
Cu154       N156   2.100       .  S
Cu154       N162   2.101       .  S
N155        N156   1.322       .  A
N155        C159   1.345       .  A
N156        C157   1.351       .  A
C157        C158   1.392       .  A
C157        H160   1.082       .  S
C158        C159   1.385       .  A
C158       C3161   1.488       .  S
C159        H161   1.082       .  S
N162        N163   1.324       .  A
N162        C166   1.348       .  A
N163        C164   1.353       .  A
C164        C165   1.393       .  A
C164        H167   1.082       .  S
C165        C166   1.392       .  A
C165       C3121   1.502       .  S
C166        H168   1.081       .  S
N169        N170   1.321       .  A
N169        C173   1.349       .  A
N169       Cu177   2.098       .  S
N170        C171   1.347       .  A
N170       Cu176   2.078       .  S
C171        C172   1.387       .  A
C171        H174   1.082       .  S
C172        C173   1.392       .  A
C172       C3105   1.491       .  S
C173        H175   1.082       .  S
Cu176       N179   2.078       .  S
Cu177       N187   2.099       .  S
Cu178       N180   2.106       .  S
Cu178       N186   2.107       .  S
N179        N180   1.324       .  A
N179        C183   1.345       .  A
N180        C181   1.352       .  A
C181        C182   1.392       .  A
C181        H184   1.082       .  S
C182        C183   1.384       .  A
C182       C3089   1.489       .  S
C183        H185   1.082       .  S
N186        N187   1.324       .  A
N186        C190   1.353       .  A
N187        C188   1.348       .  A
C188        C189   1.390       .  A
C188        H191   1.082       .  S
C189        C190   1.392       .  A
C189       C3081   1.497       .  S
C190        H192   1.082       .  S
N193        N194   1.321       .  A
N193        C197   1.351       .  A
N193       Cu201   2.098       .  S
N194        C195   1.344       .  A
N194       Cu200   2.069       .  S
C195        C196   1.384       .  A
C195        H198   1.082       .  S
C196        C197   1.392       .  A
C196       C3041   1.488       .  S
C197        H199   1.082       .  S
Cu200       N203   2.070       .  S
Cu201       N211   2.100       .  S
Cu202       N204   2.116       .  S
Cu202       N210   2.118       .  S
N203        N204   1.323       .  A
N203        C207   1.343       .  A
N204        C205   1.355       .  A
C205        C206   1.394       .  A
C205        H208   1.082       .  S
C206        C207   1.381       .  A
C206       C3057   1.487       .  S
C207        H209   1.082       .  S
N210        N211   1.326       .  A
N210        C214   1.355       .  A
N211        C212   1.347       .  A
C212        C213   1.389       .  A
C212        H215   1.082       .  S
C213        C214   1.393       .  A
C213       C3025   1.499       .  S
C214        H216   1.082       .  S
N217        N218   1.320       .  A
N217        C221   1.350       .  A
N217       Cu225   2.097       .  S
N218        C219   1.345       .  A
N218       Cu224   2.071       .  S
C219        C220   1.386       .  A
C219        H222   1.082       .  S
C220        C221   1.393       .  A
C220       C3049   1.492       .  S
C221        H223   1.081       .  S
Cu224       N227   2.071       .  S
Cu225       N235   2.098       .  S
Cu226       N228   2.114       .  S
Cu226       N234   2.115       .  S
N227        N228   1.323       .  A
N227        C231   1.344       .  A
N228        C229   1.353       .  A
C229        C230   1.394       .  A
C229        H232   1.082       .  S
C230        C231   1.383       .  A
C230       C3113   1.490       .  S
C231        H233   1.082       .  S
N234        N235   1.324       .  A
N234        C238   1.355       .  A
N235        C236   1.346       .  A
C236        C237   1.392       .  A
C236        H239   1.081       .  S
C237        C238   1.396       .  A
C237       C3009   1.505       .  S
C238        H240   1.081       .  S
N241        N242   1.321       .  A
N241        C245   1.352       .  A
N241       Cu249   2.110       .  S
N242        C243   1.346       .  A
N242       Cu248   2.074       .  S
C243        C244   1.387       .  A
C243        H246   1.082       .  S
C244        C245   1.395       .  A
C244       C3145   1.495       .  S
C245        H247   1.082       .  S
Cu248       N251   2.074       .  S
Cu249       N259   2.112       .  S
Cu250       N252   2.115       .  S
Cu250       N258   2.116       .  S
N251        N252   1.323       .  A
N251        C255   1.343       .  A
N252        C253   1.354       .  A
C253        C254   1.395       .  A
C253        H256   1.082       .  S
C254        C255   1.385       .  A
C254       C3065   1.495       .  S
C255        H257   1.081       .  S
N258        N259   1.325       .  A
N258        C262   1.354       .  A
N259        C260   1.349       .  A
C260        C261   1.394       .  A
C260        H263   1.081       .  S
C261        C262   1.395       .  A
C261       C2993   1.508       .  S
C262        H264   1.081       .  S
N265        N266   1.320       .  A
N265        C269   1.347       .  A
N265       Cu273   2.089       .  S
N266        C267   1.348       .  A
N266       Cu272   2.075       .  S
C267        C268   1.387       .  A
C267        H270   1.082       .  S
C268        C269   1.390       .  A
C268       C3097   1.488       .  S
C269        H271   1.082       .  S
Cu272       N275   2.075       .  S
Cu273       N283   2.090       .  S
Cu274       N276   2.112       .  S
Cu274       N282   2.112       .  S
N275        N276   1.324       .  A
N275        C279   1.343       .  A
N276        C277   1.353       .  A
C277        C278   1.394       .  A
C277        H280   1.082       .  S
C278        C279   1.383       .  A
C278       C3153   1.490       .  S
C279        H281   1.082       .  S
N282        N283   1.324       .  A
N282        C286   1.354       .  A
N283        C284   1.346       .  A
C284        C285   1.388       .  A
C284        H287   1.082       .  S
C285        C286   1.393       .  A
C285       C2977   1.496       .  S
C286        H288   1.082       .  S
N289        N290   1.321       .  A
N289        C293   1.352       .  A
N289       Cu297   2.100       .  S
N290        C291   1.344       .  A
N290       Cu296   2.070       .  S
C291        C292   1.385       .  A
C291        H294   1.082       .  S
C292        C293   1.393       .  A
C292       C2961   1.489       .  S
C293        H295   1.082       .  S
Cu296       N299   2.071       .  S
Cu297       N307   2.102       .  S
Cu298       N300   2.110       .  S
Cu298       N306   2.111       .  S
N299        N300   1.322       .  A
N299        C303   1.342       .  A
N300        C301   1.354       .  A
C301        C302   1.397       .  A
C301        H304   1.081       .  S
C302        C303   1.387       .  A
C302       C2945   1.498       .  S
C303        H305   1.081       .  S
N306        N307   1.325       .  A
N306        C310   1.353       .  A
N307        C308   1.347       .  A
C308        C309   1.392       .  A
C308        H311   1.080       .  S
C309        C310   1.394       .  A
C309       C2929   1.504       .  S
C310        H312   1.081       .  S
N313        N314   1.323       .  A
N313        C317   1.352       .  A
N313       Cu321   2.108       .  S
N314        C315   1.345       .  A
N314       Cu320   2.080       .  S
C315        C316   1.385       .  A
C315        H318   1.082       .  S
C316        C317   1.392       .  A
C316       C2913   1.491       .  S
C317        H319   1.082       .  S
Cu320       N323   2.080       .  S
Cu321       N331   2.108       .  S
Cu322       N324   2.095       .  S
Cu322       N330   2.096       .  S
N323        N324   1.322       .  A
N323        C327   1.347       .  A
N324        C325   1.349       .  A
C325        C326   1.391       .  A
C325        H328   1.082       .  S
C326        C327   1.387       .  A
C326       C2897   1.489       .  S
C327        H329   1.082       .  S
N330        N331   1.324       .  A
N330        C334   1.347       .  A
N331        C332   1.352       .  A
C332        C333   1.394       .  A
C332        H335   1.081       .  S
C333        C334   1.392       .  A
C333       C2889   1.502       .  S
C334        H336   1.081       .  S
N337        N338   1.320       .  A
N337        C341   1.348       .  A
N337       Cu345   2.094       .  S
N338        C339   1.349       .  A
N338       Cu344   2.076       .  S
C339        C340   1.388       .  A
C339        H342   1.082       .  S
C340        C341   1.392       .  A
C340       C2921   1.492       .  S
C341        H343   1.082       .  S
Cu344       N347   2.076       .  S
Cu345       N355   2.095       .  S
Cu346       N348   2.119       .  S
Cu346       N354   2.119       .  S
N347        N348   1.325       .  A
N347        C351   1.343       .  A
N348        C349   1.355       .  A
C349        C350   1.393       .  A
C349        H352   1.082       .  S
C350        C351   1.380       .  A
C350       C2953   1.486       .  S
C351        H353   1.082       .  S
N354        N355   1.324       .  A
N354        C358   1.357       .  A
N355        C356   1.344       .  A
C356        C357   1.390       .  A
C356        H359   1.081       .  S
C357        C358   1.396       .  A
C357       C2865   1.503       .  S
C358        H360   1.082       .  S
N361        N362   1.320       .  A
N361        C365   1.346       .  A
N361       Cu369   2.075       .  S
N362        C363   1.344       .  A
N362       Cu368   2.071       .  S
C363        C364   1.387       .  A
C363        H366   1.082       .  S
C364        C365   1.388       .  A
C364       C2833   1.484       .  S
C365        H367   1.082       .  S
Cu368       N371   2.072       .  S
Cu369       N379   2.076       .  S
Cu370       N372   2.102       .  S
Cu370       N378   2.102       .  S
N371        N372   1.323       .  A
N371        C375   1.345       .  A
N372        C373   1.349       .  A
C373        C374   1.390       .  A
C373        H376   1.082       .  S
C374        C375   1.383       .  A
C374       C2849   1.485       .  S
C375        H377   1.082       .  S
N378        N379   1.322       .  A
N378        C382   1.351       .  A
N379        C380   1.343       .  A
C380        C381   1.388       .  A
C380        H383   1.080       .  S
C381        C382   1.395       .  A
C381       C2817   1.496       .  S
C382        H384   1.081       .  S
N385        N386   1.320       .  A
N385        C389   1.347       .  A
N385       Cu393   2.085       .  S
N386        C387   1.348       .  A
N386       Cu392   2.074       .  S
C387        C388   1.388       .  A
C387        H390   1.082       .  S
C388        C389   1.389       .  A
C388       C2905   1.487       .  S
C389        H391   1.082       .  S
Cu392       N395   2.075       .  S
Cu393       N403   2.085       .  S
Cu394       N396   2.109       .  S
Cu394       N402   2.108       .  S
N395        N396   1.324       .  A
N395        C399   1.343       .  A
N396        C397   1.352       .  A
C397        C398   1.393       .  A
C397        H400   1.082       .  S
C398        C399   1.383       .  A
C398       C2857   1.490       .  S
C399        H401   1.082       .  S
N402        N403   1.324       .  A
N402        C406   1.355       .  A
N403        C404   1.343       .  A
C404        C405   1.387       .  A
C404        H407   1.082       .  S
C405        C406   1.394       .  A
C405       C2801   1.495       .  S
C406        H408   1.082       .  S
N409        N410   1.324       .  A
N409        C413   1.353       .  A
N409       Cu417   2.114       .  S
N410        C411   1.344       .  A
N410       Cu416   2.072       .  S
C411        C412   1.384       .  A
C411        H414   1.082       .  S
C412        C413   1.394       .  A
C412       C2969   1.492       .  S
C413        H415   1.082       .  S
Cu416       N419   2.071       .  S
Cu417       N427   2.114       .  S
Cu418       N420   2.077       .  S
Cu418       N426   2.078       .  S
N419        N420   1.320       .  A
N419        C423   1.345       .  A
N420        C421   1.346       .  A
C421        C422   1.387       .  A
C421        H424   1.082       .  S
C422        C423   1.386       .  A
C422       C2841   1.482       .  S
C423        H425   1.082       .  S
N426        N427   1.323       .  A
N426        C430   1.343       .  A
N427        C428   1.354       .  A
C428        C429   1.395       .  A
C428        H431   1.082       .  S
C429        C430   1.387       .  A
C429       C2785   1.498       .  S
C430        H432   1.081       .  S
C433        C434   1.547       .  S
C433        C439   1.535       .  S
C433        C437   1.557       .  S
C433       C2769   1.546       .  S
C434        H441   1.086       .  S
C434        C435   1.363       .  D
C435        C436   1.532       .  S
C435       C2761   1.484       .  S
C436        C440   1.534       .  S
C436        C438   1.536       .  S
C436        H442   1.109       .  S
C437        H443   1.085       .  S
C437        C438   1.387       .  D
C438       C3017   1.490       .  S
C439        H444   1.086       .  S
C439        C440   1.361       .  D
C440       C2737   1.491       .  S
N445        N446   1.321       .  A
N445        C449   1.349       .  A
N445       Cu453   2.085       .  S
N446        C447   1.340       .  A
N446       Cu452   2.053       .  S
C447        C448   1.379       .  A
C447        H450   1.082       .  S
C448        C449   1.388       .  A
C448       C2753   1.474       .  S
C449        H451   1.082       .  S
Cu452       N455   2.054       .  S
Cu453       N463   2.087       .  S
Cu454       N456   2.073       .  S
Cu454       N462   2.075       .  S
N455        N456   1.321       .  A
N455        C459   1.340       .  A
N456        C457   1.348       .  A
C457        C458   1.384       .  A
C457        H460   1.082       .  S
C458        C459   1.378       .  A
C458       C2729   1.466       .  S
C459        H461   1.082       .  S
N462        N463   1.324       .  A
N462        C466   1.344       .  A
N463        C464   1.346       .  A
C464        C465   1.388       .  A
C464        H467   1.081       .  S
C465        C466   1.385       .  A
C465       C2705   1.484       .  S
C466        H468   1.081       .  S
C469        C470   1.541       .  S
C469        C475   1.545       .  S
C469        C473   1.559       .  S
C469       C2697   1.543       .  S
C470        H477   1.087       .  S
C470        C471   1.358       .  D
C471        C472   1.526       .  S
C471       C2721   1.469       .  S
C472        C476   1.526       .  S
C472        C474   1.534       .  S
C472        H478   1.112       .  S
C473        H479   1.084       .  S
C473        C474   1.386       .  D
C474       C3289   1.486       .  S
C475        H480   1.087       .  S
C475        C476   1.362       .  D
C476       C2681   1.483       .  S
C481        C482   1.541       .  S
C481        C487   1.537       .  S
C481        C485   1.560       .  S
C481       C2777   1.545       .  S
C482        H489   1.086       .  S
C482        C483   1.363       .  D
C483        C484   1.530       .  S
C483       C2665   1.481       .  S
C484        C488   1.532       .  S
C484        C486   1.539       .  S
C484        H490   1.110       .  S
C485        H491   1.084       .  S
C485        C486   1.386       .  D
C486       C2873   1.493       .  S
C487        H492   1.086       .  S
C487        C488   1.363       .  D
C488       C2649   1.490       .  S
C493        C494   1.536       .  S
C493        C499   1.545       .  S
C493        C497   1.556       .  S
C493       C2689   1.541       .  S
C494        H501   1.086       .  S
C494        C495   1.363       .  D
C495        C496   1.533       .  S
C495       C2617   1.493       .  S
C496        C500   1.535       .  S
C496        C498   1.534       .  S
C496        H502   1.109       .  S
C497        H503   1.084       .  S
C497        C498   1.382       .  D
C498       C2625   1.486       .  S
C499        H504   1.086       .  S
C499        C500   1.366       .  D
C500       C2593   1.484       .  S
N505        N506   1.318       .  A
N505        C509   1.352       .  A
N505       Cu513   2.093       .  S
N506        C507   1.336       .  A
N506       Cu512   2.047       .  S
C507        C508   1.384       .  A
C507        H510   1.080       .  S
C508        C509   1.397       .  A
C508       C2609   1.491       .  S
C509        H511   1.081       .  S
Cu512       N515   2.047       .  S
Cu513       N523   2.096       .  S
Cu514       N516   2.086       .  S
Cu514       N522   2.089       .  S
N515        N516   1.319       .  A
N515        C519   1.339       .  A
N516        C517   1.350       .  A
C517        C518   1.390       .  A
C517        H520   1.082       .  S
C518        C519   1.380       .  A
C518       C2657   1.478       .  S
C519        H521   1.082       .  S
N522        N523   1.326       .  A
N522        C526   1.346       .  A
N523        C524   1.347       .  A
C524        C525   1.387       .  A
C524        H527   1.082       .  S
C525        C526   1.386       .  A
C525       C2577   1.488       .  S
C526        H528   1.081       .  S
N529        N530   1.317       .  A
N529        C533   1.349       .  A
N529       Cu537   2.082       .  S
N530        C531   1.340       .  A
N530       Cu536   2.044       .  S
C531        C532   1.382       .  A
C531        H534   1.082       .  S
C532        C533   1.391       .  A
C532       C2673   1.481       .  S
C533        H535   1.082       .  S
Cu536       N539   2.043       .  S
Cu537       N547   2.085       .  S
Cu538       N540   2.096       .  S
Cu538       N546   2.100       .  S
N539        N540   1.319       .  A
N539        C543   1.334       .  A
N540        C541   1.354       .  A
C541        C542   1.396       .  A
C541        H544   1.081       .  S
C542        C543   1.382       .  A
C542       C2641   1.488       .  S
C543        H545   1.080       .  S
N546        N547   1.326       .  A
N546        C550   1.349       .  A
N547        C548   1.343       .  A
C548        C549   1.385       .  A
C548        H551   1.081       .  S
C549        C550   1.390       .  A
C549       C2561   1.489       .  S
C550        H552   1.081       .  S
N553        N554   1.321       .  A
N553        C557   1.351       .  A
N553       Cu561   2.085       .  S
N554        C555   1.339       .  A
N554       Cu560   2.059       .  S
C555        C556   1.381       .  A
C555        H558   1.082       .  S
C556        C557   1.390       .  A
C556       C2601   1.479       .  S
C557        H559   1.082       .  S
Cu560       N563   2.060       .  S
Cu561       N571   2.087       .  S
Cu562       N564   2.071       .  S
Cu562       N570   2.072       .  S
N563        N564   1.318       .  A
N563        C567   1.341       .  A
N564        C565   1.346       .  A
C565        C566   1.391       .  A
C565        H568   1.081       .  S
C566        C567   1.388       .  A
C566       C2745   1.488       .  S
C567        H569   1.080       .  S
N570        N571   1.324       .  A
N570        C574   1.343       .  A
N571        C572   1.347       .  A
C572        C573   1.387       .  A
C572        H575   1.082       .  S
C573        C574   1.383       .  A
C573       C2545   1.479       .  S
C574        H576   1.082       .  S
C577        C578   1.549       .  S
C577        C583   1.551       .  S
C577        C581   1.552       .  S
C577       C2529   1.551       .  S
C578        H585   1.084       .  S
C578        C579   1.368       .  D
C579        C580   1.531       .  S
C579       C2497   1.486       .  S
C580        C584   1.530       .  S
C580        C582   1.529       .  S
C580        H586   1.111       .  S
C581        H587   1.085       .  S
C581        C582   1.375       .  D
C582       C3321   1.483       .  S
C583        H588   1.085       .  S
C583        C584   1.364       .  D
C584       C2521   1.479       .  S
C589        C590   1.544       .  S
C589        C595   1.538       .  S
C589        C593   1.557       .  S
C589       C2481   1.539       .  S
C590        H597   1.086       .  S
C590        C591   1.361       .  D
C591        C592   1.529       .  S
C591       C2465   1.476       .  S
C592        C596   1.533       .  S
C592        C594   1.533       .  S
C592        H598   1.110       .  S
C593        H599   1.084       .  S
C593        C594   1.382       .  D
C594       C2881   1.484       .  S
C595        H600   1.086       .  S
C595        C596   1.362       .  D
C596       C2457   1.488       .  S
N601        N602   1.319       .  A
N601        C605   1.347       .  A
N601       Cu609   2.078       .  S
N602        C603   1.340       .  A
N602       Cu608   2.058       .  S
C603        C604   1.387       .  A
C603        H606   1.080       .  S
C604        C605   1.392       .  A
C604       C2449   1.489       .  S
C605        H607   1.081       .  S
Cu608       N611   2.057       .  S
Cu609       N619   2.079       .  S
Cu610       N612   2.092       .  S
Cu610       N618   2.093       .  S
N611        N612   1.320       .  A
N611        C615   1.341       .  A
N612        C613   1.350       .  A
C613        C614   1.392       .  A
C613        H616   1.082       .  S
C614        C615   1.383       .  A
C614       C2513   1.486       .  S
C615        H617   1.082       .  S
N618        N619   1.324       .  A
N618        C622   1.348       .  A
N619        C620   1.345       .  A
C620        C621   1.385       .  A
C620        H623   1.082       .  S
C621        C622   1.388       .  A
C621       C2569   1.485       .  S
C622        H624   1.082       .  S
C625        C626   1.542       .  S
C625        C631   1.540       .  S
C625        C629   1.558       .  S
C625       C2489   1.542       .  S
C626        H633   1.086       .  S
C626        C627   1.363       .  D
C627        C628   1.533       .  S
C627       C2425   1.495       .  S
C628        C632   1.527       .  S
C628        C630   1.536       .  S
C628        H634   1.110       .  S
C629        H635   1.084       .  S
C629        C630   1.388       .  D
C630       C2433   1.488       .  S
C631        H636   1.087       .  S
C631        C632   1.358       .  D
C632       C2401   1.473       .  S
N637        N638   1.320       .  A
N637        C641   1.347       .  A
N637       Cu645   2.069       .  S
N638        C639   1.339       .  A
N638       Cu644   2.057       .  S
C639        C640   1.380       .  A
C639        H642   1.082       .  S
C640        C641   1.386       .  A
C640       C2409   1.471       .  S
C641        H643   1.082       .  S
Cu644       N647   2.058       .  S
Cu645       N655   2.071       .  S
Cu646       N648   2.077       .  S
Cu646       N654   2.078       .  S
N647        N648   1.319       .  A
N647        C651   1.340       .  A
N648        C649   1.347       .  A
C649        C650   1.392       .  A
C649        H652   1.081       .  S
C650        C651   1.386       .  A
C650       C2385   1.487       .  S
C651        H653   1.081       .  S
N654        N655   1.323       .  A
N654        C658   1.345       .  A
N655        C656   1.343       .  A
C656        C657   1.385       .  A
C656        H659   1.081       .  S
C657        C658   1.386       .  A
C657       C2553   1.482       .  S
C658        H660   1.082       .  S
N661        N662   1.319       .  A
N661        C665   1.351       .  A
N661       Cu669   2.095       .  S
N662        C663   1.340       .  A
N662       Cu668   2.048       .  S
C663        C664   1.383       .  A
C663        H666   1.082       .  S
C664        C665   1.394       .  A
C664       C2417   1.485       .  S
C665        H667   1.082       .  S
Cu668       N671   2.048       .  S
Cu669       N679   2.098       .  S
Cu670       N672   2.105       .  S
Cu670       N678   2.108       .  S
N671        N672   1.320       .  A
N671        C675   1.337       .  A
N672        C673   1.355       .  A
C673        C674   1.395       .  A
C673        H676   1.082       .  S
C674        C675   1.379       .  A
C674       C2505   1.484       .  S
C675        H677   1.082       .  S
N678        N679   1.327       .  A
N678        C682   1.350       .  A
N679        C680   1.348       .  A
C680        C681   1.386       .  A
C680        H683   1.082       .  S
C681        C682   1.389       .  A
C681       C2369   1.490       .  S
C682        H684   1.082       .  S
C685        C686   1.546       .  S
C685        C691   1.539       .  S
C685        C689   1.556       .  S
C685       C2537   1.553       .  S
C686        H693   1.079       .  S
C686        C687   1.369       .  D
C687        C688   1.538       .  S
C687       C2353   1.489       .  S
C688        C692   1.534       .  S
C688        C690   1.534       .  S
C688        H694   1.109       .  S
C689        H695   1.085       .  S
C689        C690   1.380       .  D
C690       C3033   1.493       .  S
C691        H696   1.086       .  S
C691        C692   1.361       .  D
C692       C2393   1.487       .  S
N697        N698   1.319       .  A
N697        C701   1.348       .  A
N697       Cu705   2.071       .  S
N698        C699   1.339       .  A
N698       Cu704   2.052       .  S
C699        C700   1.382       .  A
C699        H702   1.082       .  S
C700        C701   1.388       .  A
C700       C2473   1.477       .  S
C701        H703   1.082       .  S
Cu704       N707   2.052       .  S
Cu705       N715   2.074       .  S
Cu706       N708   2.092       .  S
Cu706       N714   2.094       .  S
N707        N708   1.320       .  A
N707        C711   1.339       .  A
N708        C709   1.351       .  A
C709        C710   1.393       .  A
C709        H712   1.082       .  S
C710        C711   1.382       .  A
C710       C2361   1.485       .  S
C711        H713   1.081       .  S
N714        N715   1.324       .  A
N714        C718   1.348       .  A
N715        C716   1.343       .  A
C716        C717   1.385       .  A
C716        H719   1.081       .  S
C717        C718   1.390       .  A
C717       C2337   1.487       .  S
C718        H720   1.081       .  S
C721        C722   1.547       .  S
C721        C727   1.544       .  S
C721        C725   1.553       .  S
C721       C2329   1.554       .  S
C722        H729   1.079       .  S
C722        C723   1.370       .  D
C723        C724   1.538       .  S
C723       C2289   1.499       .  S
C724        C728   1.532       .  S
C724        C726   1.537       .  S
C724        H730   1.107       .  S
C725        H731   1.085       .  S
C725        C726   1.377       .  D
C726       C2809   1.493       .  S
C727        H732   1.086       .  S
C727        C728   1.365       .  D
C728       C2305   1.488       .  S
N733        N734   1.319       .  A
N733        C737   1.351       .  A
N733       Cu741   2.088       .  S
N734        C735   1.336       .  A
N734       Cu740   2.041       .  S
C735        C736   1.380       .  A
C735        H738   1.081       .  S
C736        C737   1.393       .  A
C736       C2273   1.481       .  S
C737        H739   1.082       .  S
Cu740       N743   2.041       .  S
Cu741       N751   2.091       .  S
Cu742       N744   2.093       .  S
Cu742       N750   2.096       .  S
N743        N744   1.318       .  A
N743        C747   1.337       .  A
N744        C745   1.352       .  A
C745        C746   1.395       .  A
C745        H748   1.082       .  S
C746        C747   1.382       .  A
C746       C2313   1.487       .  S
C747        H749   1.081       .  S
N750        N751   1.327       .  A
N750        C754   1.345       .  A
N751        C752   1.347       .  A
C752        C753   1.387       .  A
C752        H755   1.081       .  S
C753        C754   1.388       .  A
C753       C2257   1.489       .  S
C754        H756   1.081       .  S
C757        C758   1.549       .  S
C757        C763   1.546       .  S
C757        C761   1.555       .  S
C757       C2233   1.556       .  S
C758        H765   1.084       .  S
C758        C759   1.368       .  D
C759        C760   1.537       .  S
C759       C2217   1.492       .  S
C760        C764   1.528       .  S
C760        C762   1.533       .  S
C760        H766   1.109       .  S
C761        H767   1.085       .  S
C761        C762   1.378       .  D
C762       C2241   1.494       .  S
C763        H768   1.084       .  S
C763        C764   1.365       .  D
C764       C2281   1.483       .  S
C769        C770   1.542       .  S
C769        C775   1.551       .  S
C769        C773   1.557       .  S
C769       C2321   1.557       .  S
C770        H777   1.081       .  S
C770        C771   1.364       .  D
C771        C772   1.536       .  S
C771       C2193   1.493       .  S
C772        C776   1.534       .  S
C772        C774   1.533       .  S
C772        H778   1.107       .  S
C773        H779   1.085       .  S
C773        C774   1.381       .  D
C774       C3257   1.497       .  S
C775        H780   1.084       .  S
C775        C776   1.366       .  D
C776       C2185   1.492       .  S
N781        N782   1.322       .  A
N781        C785   1.349       .  A
N781       Cu789   2.091       .  S
N782        C783   1.342       .  A
N782       Cu788   2.061       .  S
C783        C784   1.380       .  A
C783        H786   1.082       .  S
C784        C785   1.387       .  A
C784       C2209   1.474       .  S
C785        H787   1.082       .  S
Cu788       N791   2.062       .  S
Cu789       N799   2.092       .  S
Cu790       N792   2.086       .  S
Cu790       N798   2.088       .  S
N791        N792   1.320       .  A
N791        C795   1.342       .  A
N792        C793   1.348       .  A
C793        C794   1.392       .  A
C793        H796   1.081       .  S
C794        C795   1.387       .  A
C794       C2201   1.489       .  S
C795        H797   1.081       .  S
N798        N799   1.323       .  A
N798        C802   1.346       .  A
N799        C800   1.349       .  A
C800        C801   1.390       .  A
C800        H803   1.082       .  S
C801        C802   1.388       .  A
C801       C2377   1.491       .  S
C802        H804   1.082       .  S
C805        C806   1.545       .  S
C805        C811   1.542       .  S
C805        C809   1.557       .  S
C805       C2225   1.557       .  S
C806        H813   1.084       .  S
C806        C807   1.365       .  D
C807        C808   1.535       .  S
C807       C2145   1.483       .  S
C808        C812   1.532       .  S
C808        C810   1.533       .  S
C808        H814   1.111       .  S
C809        H815   1.085       .  S
C809        C810   1.381       .  D
C810       C3001   1.494       .  S
C811        H816   1.084       .  S
C811        C812   1.362       .  D
C812       C2169   1.478       .  S
N817        N818   1.321       .  A
N817        C821   1.350       .  A
N817       Cu825   2.085       .  S
N818        C819   1.341       .  A
N818       Cu824   2.060       .  S
C819        C820   1.380       .  A
C819        H822   1.082       .  S
C820        C821   1.388       .  A
C820       C2177   1.476       .  S
C821        H823   1.082       .  S
Cu824       N827   2.061       .  S
Cu825       N835   2.087       .  S
Cu826       N828   2.074       .  S
Cu826       N834   2.075       .  S
N827        N828   1.319       .  A
N827        C831   1.341       .  A
N828        C829   1.346       .  A
C829        C830   1.391       .  A
C829        H832   1.081       .  S
C830        C831   1.388       .  A
C830       C2161   1.488       .  S
C831        H833   1.080       .  S
N834        N835   1.323       .  A
N834        C838   1.346       .  A
N835        C836   1.345       .  A
C836        C837   1.388       .  A
C836        H839   1.082       .  S
C837        C838   1.386       .  A
C837       C2129   1.485       .  S
C838        H840   1.082       .  S
N841        N842   1.319       .  A
N841        C845   1.348       .  A
N841       Cu849   2.074       .  S
N842        C843   1.340       .  A
N842       Cu848   2.053       .  S
C843        C844   1.382       .  A
C843        H846   1.082       .  S
C844        C845   1.388       .  A
C844       C2153   1.476       .  S
C845        H847   1.082       .  S
Cu848       N851   2.053       .  S
Cu849       N859   2.077       .  S
Cu850       N852   2.091       .  S
Cu850       N858   2.093       .  S
N851        N852   1.321       .  A
N851        C855   1.339       .  A
N852        C853   1.351       .  A
C853        C854   1.390       .  A
C853        H856   1.082       .  S
C854        C855   1.379       .  A
C854       C2297   1.476       .  S
C855        H857   1.082       .  S
N858        N859   1.326       .  A
N858        C862   1.348       .  A
N859        C860   1.343       .  A
C860        C861   1.381       .  A
C860        H863   1.082       .  S
C861        C862   1.386       .  A
C861       C2345   1.477       .  S
C862        H864   1.082       .  S
C865        C866   1.544       .  S
C865        C871   1.542       .  S
C865        C869   1.552       .  S
C865       C2113   1.536       .  S
C866        H873   1.086       .  S
C866        C867   1.362       .  D
C867        C868   1.531       .  S
C867       C2081   1.481       .  S
C868        C872   1.530       .  S
C868        C870   1.533       .  S
C868        H874   1.111       .  S
C869        H875   1.084       .  S
C869        C870   1.378       .  D
C870       C2825   1.476       .  S
C871        H876   1.086       .  S
C871        C872   1.364       .  D
C872       C2097   1.485       .  S
C877        C878   1.541       .  S
C877        C883   1.538       .  S
C877        C881   1.553       .  S
C877       C2049   1.537       .  S
C878        H885   1.087       .  S
C878        C879   1.362       .  D
C879        C880   1.530       .  S
C879       C2033   1.477       .  S
C880        C884   1.535       .  S
C880        C882   1.538       .  S
C880        H886   1.110       .  S
C881        H887   1.084       .  S
C881        C882   1.380       .  D
C882       C2065   1.482       .  S
C883        H888   1.086       .  S
C883        C884   1.364       .  D
C884       C2025   1.492       .  S
N889        N890   1.320       .  A
N889        C893   1.352       .  A
N889       Cu897   2.083       .  S
N890        C891   1.337       .  A
N890       Cu896   2.054       .  S
C891        C892   1.380       .  A
C891        H894   1.082       .  S
C892        C893   1.390       .  A
C892       C2105   1.477       .  S
C893        H895   1.082       .  S
Cu896       N899   2.054       .  S
Cu897       N907   2.085       .  S
Cu898       N900   2.091       .  S
Cu898       N906   2.094       .  S
N899        N900   1.319       .  A
N899        C903   1.340       .  A
N900        C901   1.350       .  A
C901        C902   1.393       .  A
C901        H904   1.081       .  S
C902        C903   1.385       .  A
C902       C2017   1.488       .  S
C903        H905   1.081       .  S
N906        N907   1.325       .  A
N906        C910   1.348       .  A
N907        C908   1.344       .  A
C908        C909   1.385       .  A
C908        H911   1.082       .  S
C909        C910   1.388       .  A
C909       C2265   1.486       .  S
C910        H912   1.081       .  S
C913        C914   1.536       .  S
C913        C919   1.544       .  S
C913        C917   1.554       .  S
C913       C2057   1.538       .  S
C914        H921   1.087       .  S
C914        C915   1.359       .  D
C915        C916   1.531       .  S
C915       C2001   1.481       .  S
C916        C920   1.534       .  S
C916        C918   1.538       .  S
C916        H922   1.111       .  S
C917        H923   1.084       .  S
C917        C918   1.382       .  D
C918       C3225   1.484       .  S
C919        H924   1.086       .  S
C919        C920   1.365       .  D
C920       C1985   1.486       .  S
N925        N926   1.320       .  A
N925        C929   1.348       .  A
N925       Cu933   2.071       .  S
N926        C927   1.338       .  A
N926       Cu932   2.059       .  S
C927        C928   1.384       .  A
C927        H930   1.081       .  S
C928        C929   1.388       .  A
C928       C1977   1.479       .  S
C929        H931   1.082       .  S
Cu932       N935   2.058       .  S
Cu933       N943   2.073       .  S
Cu934       N936   2.090       .  S
Cu934       N942   2.092       .  S
N935        N936   1.321       .  A
N935        C939   1.341       .  A
N936        C937   1.350       .  A
C937        C938   1.390       .  A
C937        H940   1.082       .  S
C938        C939   1.381       .  A
C938       C1993   1.480       .  S
C939        H941   1.082       .  S
N942        N943   1.323       .  A
N942        C946   1.347       .  A
N943        C944   1.344       .  A
C944        C945   1.386       .  A
C944        H947   1.081       .  S
C945        C946   1.390       .  A
C945       C2137   1.487       .  S
C946        H948   1.081       .  S
N949        N950   1.320       .  A
N949        C953   1.347       .  A
N949       Cu957   2.072       .  S
N950        C951   1.342       .  A
N950       Cu956   2.060       .  S
C951        C952   1.383       .  A
C951        H954   1.082       .  S
C952        C953   1.387       .  A
C952       C2089   1.476       .  S
C953        H955   1.082       .  S
Cu956       N959   2.061       .  S
Cu957       N967   2.074       .  S
Cu958       N960   2.086       .  S
Cu958       N966   2.088       .  S
N959        N960   1.321       .  A
N959        C963   1.339       .  A
N960        C961   1.351       .  A
C961        C962   1.392       .  A
C961        H964   1.082       .  S
C962        C963   1.385       .  A
C962       C2009   1.487       .  S
C963        H965   1.081       .  S
N966        N967   1.324       .  A
N966        C970   1.347       .  A
N967        C968   1.344       .  A
C968        C969   1.383       .  A
C968        H971   1.082       .  S
C969        C970   1.388       .  A
C969       C1961   1.482       .  S
C970        H972   1.082       .  S
C973        C974   1.536       .  S
C973        C979   1.537       .  S
C973        C977   1.557       .  S
C973       C2121   1.540       .  S
C974        H981   1.087       .  S
C974        C975   1.359       .  D
C975        C976   1.532       .  S
C975       C1937   1.481       .  S
C976        C980   1.529       .  S
C976        C978   1.538       .  S
C976        H982   1.111       .  S
C977        H983   1.085       .  S
C977        C978   1.390       .  D
C978       C3129   1.486       .  S
C979        H984   1.087       .  S
C979        C980   1.358       .  D
C980       C1969   1.477       .  S
N985        N986   1.320       .  A
N985        C989   1.347       .  A
N985       Cu993   2.083       .  S
N986        C987   1.342       .  A
N986       Cu992   2.059       .  S
C987        C988   1.383       .  A
C987        H990   1.082       .  S
C988        C989   1.390       .  A
C988       C2041   1.482       .  S
C989        H991   1.082       .  S
Cu992       N995   2.060       .  S
Cu993      N1003   2.085       .  S
Cu994       N996   2.073       .  S
Cu994      N1002   2.074       .  S
N995        N996   1.320       .  A
N995        C999   1.339       .  A
N996        C997   1.347       .  A
C997        C998   1.390       .  A
C997       H1000   1.081       .  S
C998        C999   1.386       .  A
C998       C1945   1.484       .  S
C999       H1001   1.080       .  S
N1002      N1003   1.323       .  A
N1002      C1006   1.344       .  A
N1003      C1004   1.346       .  A
C1004      C1005   1.388       .  A
C1004      H1007   1.082       .  S
C1005      C1006   1.385       .  A
C1005      C1921   1.484       .  S
C1006      H1008   1.082       .  S
C1009      C1010   1.546       .  S
C1009      C1015   1.544       .  S
C1009      C1013   1.555       .  S
C1009      C1889   1.559       .  S
C1010      H1017   1.083       .  S
C1010      C1011   1.366       .  D
C1011      C1012   1.535       .  S
C1011      C1857   1.495       .  S
C1012      C1016   1.533       .  S
C1012      C1014   1.535       .  S
C1012      H1018   1.109       .  S
C1013      H1019   1.085       .  S
C1013      C1014   1.381       .  D
C1014      C1905   1.492       .  S
C1015      H1020   1.084       .  S
C1015      C1016   1.366       .  D
C1016      C1873   1.483       .  S
C1021      C1022   1.543       .  S
C1021      C1027   1.553       .  S
C1021      C1025   1.562       .  S
C1021      C1841   1.554       .  S
C1022      H1029   1.086       .  S
C1022      C1023   1.360       .  D
C1023      C1024   1.526       .  S
C1023      C1833   1.473       .  S
C1024      C1028   1.531       .  S
C1024      C1026   1.526       .  S
C1024      H1030   1.110       .  S
C1025      H1031   1.085       .  S
C1025      C1026   1.380       .  D
C1026      C3193   1.492       .  S
C1027      H1032   1.081       .  S
C1027      C1028   1.369       .  D
C1028      C1809   1.490       .  S
N1033      N1034   1.319       .  A
N1033      C1037   1.352       .  A
N1033     Cu1041   2.095       .  S
N1034      C1035   1.338       .  A
N1034     Cu1040   2.046       .  S
C1035      C1036   1.382       .  A
C1035      H1038   1.081       .  S
C1036      C1037   1.394       .  A
C1036      C1881   1.486       .  S
C1037      H1039   1.082       .  S
Cu1040     N1043   2.046       .  S
Cu1041     N1051   2.098       .  S
Cu1042     N1044   2.095       .  S
Cu1042     N1050   2.098       .  S
N1043      N1044   1.320       .  A
N1043      C1047   1.338       .  A
N1044      C1045   1.353       .  A
C1045      C1046   1.391       .  A
C1045      H1048   1.082       .  S
C1046      C1047   1.378       .  A
C1046      C1817   1.477       .  S
C1047      H1049   1.082       .  S
N1050      N1051   1.327       .  A
N1050      C1054   1.348       .  A
N1051      C1052   1.347       .  A
C1052      C1053   1.388       .  A
C1052      H1055   1.082       .  S
C1053      C1054   1.388       .  A
C1053      C1793   1.490       .  S
C1054      H1056   1.081       .  S
C1057      C1058   1.545       .  S
C1057      C1063   1.546       .  S
C1057      C1061   1.553       .  S
C1057      C1897   1.556       .  S
C1058      H1065   1.084       .  S
C1058      C1059   1.367       .  D
C1059      C1060   1.534       .  S
C1059      C1761   1.493       .  S
C1060      C1064   1.534       .  S
C1060      C1062   1.533       .  S
C1060      H1066   1.110       .  S
C1061      H1067   1.085       .  S
C1061      C1062   1.378       .  D
C1062      C3073   1.490       .  S
C1063      H1068   1.084       .  S
C1063      C1064   1.368       .  D
C1064      C1777   1.484       .  S
C1069      C1070   1.551       .  S
C1069      C1075   1.548       .  S
C1069      C1073   1.554       .  S
C1069      C1849   1.554       .  S
C1070      H1077   1.085       .  S
C1070      C1071   1.364       .  D
C1071      C1072   1.529       .  S
C1071      C1745   1.478       .  S
C1072      C1076   1.530       .  S
C1072      C1074   1.530       .  S
C1072      H1078   1.111       .  S
C1073      H1079   1.085       .  S
C1073      C1074   1.378       .  D
C1074      C2937   1.488       .  S
C1075      H1080   1.084       .  S
C1075      C1076   1.365       .  D
C1076      C1729   1.482       .  S
N1081      N1082   1.318       .  A
N1081      C1085   1.350       .  A
N1081     Cu1089   2.084       .  S
N1082      C1083   1.337       .  A
N1082     Cu1088   2.041       .  S
C1083      C1084   1.379       .  A
C1083      H1086   1.082       .  S
C1084      C1085   1.391       .  A
C1084      C1737   1.477       .  S
C1085      H1087   1.082       .  S
Cu1088     N1091   2.041       .  S
Cu1089     N1099   2.088       .  S
Cu1090     N1092   2.092       .  S
Cu1090     N1098   2.095       .  S
N1091      N1092   1.318       .  A
N1091      C1095   1.336       .  A
N1092      C1093   1.352       .  A
C1093      C1094   1.395       .  A
C1093      H1096   1.082       .  S
C1094      C1095   1.381       .  A
C1094      C1785   1.485       .  S
C1095      H1097   1.081       .  S
N1098      N1099   1.326       .  A
N1098      C1102   1.346       .  A
N1099      C1100   1.345       .  A
C1100      C1101   1.387       .  A
C1100      H1103   1.081       .  S
C1101      C1102   1.388       .  A
C1101      C1713   1.488       .  S
C1102      H1104   1.081       .  S
N1105      N1106   1.320       .  A
N1105      C1109   1.348       .  A
N1105     Cu1113   2.085       .  S
N1106      C1107   1.342       .  A
N1106     Cu1112   2.059       .  S
C1107      C1108   1.384       .  A
C1107      H1110   1.082       .  S
C1108      C1109   1.391       .  A
C1108      C1753   1.484       .  S
C1109      H1111   1.082       .  S
Cu1112     N1115   2.060       .  S
Cu1113     N1123   2.087       .  S
Cu1114     N1116   2.086       .  S
Cu1114     N1122   2.088       .  S
N1115      N1116   1.320       .  A
N1115      C1119   1.339       .  A
N1116      C1117   1.350       .  A
C1117      C1118   1.393       .  A
C1117      H1120   1.081       .  S
C1118      C1119   1.385       .  A
C1118      C1865   1.489       .  S
C1119      H1121   1.081       .  S
N1122      N1123   1.324       .  A
N1122      C1126   1.346       .  A
N1123      C1124   1.346       .  A
C1124      C1125   1.389       .  A
C1124      H1127   1.081       .  S
C1125      C1126   1.389       .  A
C1125      C2585   1.492       .  S
C1126      H1128   1.081       .  S
N1129      N1130   1.318       .  A
N1129      C1133   1.347       .  A
N1129     Cu1137   2.071       .  S
N1130      C1131   1.339       .  A
N1130     Cu1136   2.046       .  S
C1131      C1132   1.382       .  A
C1131      H1134   1.082       .  S
C1132      C1133   1.389       .  A
C1132      C1825   1.476       .  S
C1133      H1135   1.082       .  S
Cu1136     N1139   2.047       .  S
Cu1137     N1147   2.074       .  S
Cu1138     N1140   2.091       .  S
Cu1138     N1146   2.094       .  S
N1139      N1140   1.319       .  A
N1139      C1143   1.336       .  A
N1140      C1141   1.352       .  A
C1141      C1142   1.394       .  A
C1141      H1144   1.082       .  S
C1142      C1143   1.383       .  A
C1142      C1769   1.487       .  S
C1143      H1145   1.081       .  S
N1146      N1147   1.326       .  A
N1146      C1150   1.347       .  A
N1147      C1148   1.343       .  A
C1148      C1149   1.382       .  A
C1148      H1151   1.082       .  S
C1149      C1150   1.386       .  A
C1149      C2713   1.480       .  S
C1150      H1152   1.082       .  S
C1153      C1154   1.538       .  S
C1153      C1159   1.539       .  S
C1153      C1157   1.554       .  S
C1153      C1697   1.541       .  S
C1154      H1161   1.087       .  S
C1154      C1155   1.361       .  D
C1155      C1156   1.530       .  S
C1155      C1681   1.485       .  S
C1156      C1160   1.535       .  S
C1156      C1158   1.535       .  S
C1156      H1162   1.109       .  S
C1157      H1163   1.084       .  S
C1157      C1158   1.384       .  D
C1158      C2793   1.482       .  S
C1159      H1164   1.085       .  S
C1159      C1160   1.364       .  D
C1160      C1673   1.489       .  S
N1165      N1166   1.318       .  A
N1165      C1169   1.350       .  A
N1165     Cu1173   2.082       .  S
N1166      C1167   1.339       .  A
N1166     Cu1172   2.050       .  S
C1167      C1168   1.382       .  A
C1167      H1170   1.082       .  S
C1168      C1169   1.393       .  A
C1168      C1657   1.482       .  S
C1169      H1171   1.081       .  S
Cu1172     N1175   2.050       .  S
Cu1173     N1183   2.085       .  S
Cu1174     N1176   2.088       .  S
Cu1174     N1182   2.092       .  S
N1175      N1176   1.318       .  A
N1175      C1179   1.335       .  A
N1176      C1177   1.352       .  A
C1177      C1178   1.396       .  A
C1177      H1180   1.081       .  S
C1178      C1179   1.385       .  A
C1178      C1689   1.491       .  S
C1179      H1181   1.080       .  S
N1182      N1183   1.326       .  A
N1182      C1186   1.347       .  A
N1183      C1184   1.344       .  A
C1184      C1185   1.385       .  A
C1184      H1187   1.081       .  S
C1185      C1186   1.387       .  A
C1185      C1953   1.485       .  S
C1186      H1188   1.082       .  S
C1189      C1190   1.543       .  S
C1189      C1195   1.536       .  S
C1189      C1193   1.558       .  S
C1189      C1641   1.542       .  S
C1190      H1197   1.087       .  S
C1190      C1191   1.361       .  D
C1191      C1192   1.527       .  S
C1191      C1649   1.474       .  S
C1192      C1196   1.536       .  S
C1192      C1194   1.537       .  S
C1192      H1198   1.110       .  S
C1193      H1199   1.084       .  S
C1193      C1194   1.384       .  D
C1194      C3177   1.487       .  S
C1195      H1200   1.086       .  S
C1195      C1196   1.363       .  D
C1196      C1617   1.491       .  S
C1201      C1202   1.539       .  S
C1201      C1207   1.543       .  S
C1201      C1205   1.557       .  S
C1201      C1705   1.539       .  S
C1202      H1209   1.086       .  S
C1202      C1203   1.362       .  D
C1203      C1204   1.531       .  S
C1203      C1569   1.487       .  S
C1204      C1208   1.529       .  S
C1204      C1206   1.535       .  S
C1204      H1210   1.111       .  S
C1205      H1211   1.084       .  S
C1205      C1206   1.384       .  D
C1206      C1601   1.483       .  S
C1207      H1212   1.087       .  S
C1207      C1208   1.359       .  D
C1208      C1585   1.476       .  S
N1213      N1214   1.320       .  A
N1213      C1217   1.348       .  A
N1213     Cu1221   2.087       .  S
N1214      C1215   1.342       .  A
N1214     Cu1220   2.057       .  S
C1215      C1216   1.384       .  A
C1215      H1218   1.081       .  S
C1216      C1217   1.391       .  A
C1216      C1593   1.485       .  S
C1217      H1219   1.082       .  S
Cu1220     N1223   2.057       .  S
Cu1221     N1231   2.089       .  S
Cu1222     N1224   2.085       .  S
Cu1222     N1230   2.086       .  S
N1223      N1224   1.319       .  A
N1223      C1227   1.338       .  A
N1224      C1225   1.350       .  A
C1225      C1226   1.393       .  A
C1225      H1228   1.081       .  S
C1226      C1227   1.386       .  A
C1226      C1625   1.489       .  S
C1227      H1229   1.080       .  S
N1230      N1231   1.324       .  A
N1230      C1234   1.346       .  A
N1231      C1232   1.348       .  A
C1232      C1233   1.388       .  A
C1232      H1235   1.082       .  S
C1233      C1234   1.386       .  A
C1233      C1801   1.487       .  S
C1234      H1236   1.082       .  S
C1237      C1238   1.542       .  S
C1237      C1243   1.540       .  S
C1237      C1241   1.561       .  S
C1237      C1633   1.544       .  S
C1238      H1245   1.086       .  S
C1238      C1239   1.362       .  D
C1239      C1240   1.534       .  S
C1239      C1537   1.493       .  S
C1240      C1244   1.530       .  S
C1240      C1242   1.536       .  S
C1240      H1246   1.110       .  S
C1241      H1247   1.084       .  S
C1241      C1242   1.388       .  D
C1242      C2985   1.490       .  S
C1243      H1248   1.087       .  S
C1243      C1244   1.359       .  D
C1244      C1561   1.481       .  S
N1249      N1250   1.321       .  A
N1249      C1253   1.348       .  A
N1249     Cu1257   2.075       .  S
N1250      C1251   1.340       .  A
N1250     Cu1256   2.059       .  S
C1251      C1252   1.379       .  A
C1251      H1254   1.082       .  S
C1252      C1253   1.386       .  A
C1252      C1553   1.470       .  S
C1253      H1255   1.082       .  S
Cu1256     N1259   2.060       .  S
Cu1257     N1267   2.077       .  S
Cu1258     N1260   2.068       .  S
Cu1258     N1266   2.070       .  S
N1259      N1260   1.321       .  A
N1259      C1263   1.341       .  A
N1260      C1261   1.346       .  A
C1261      C1262   1.385       .  A
C1261      H1264   1.082       .  S
C1262      C1263   1.381       .  A
C1262      C1665   1.471       .  S
C1263      H1265   1.082       .  S
N1266      N1267   1.323       .  A
N1266      C1270   1.343       .  A
N1267      C1268   1.345       .  A
C1268      C1269   1.386       .  A
C1268      H1271   1.082       .  S
C1269      C1270   1.384       .  A
C1269      C1721   1.480       .  S
C1270      H1272   1.082       .  S
N1273      N1274   1.320       .  A
N1273      C1277   1.347       .  A
N1273     Cu1281   2.074       .  S
N1274      C1275   1.340       .  A
N1274     Cu1280   2.068       .  S
C1275      C1276   1.387       .  A
C1275      H1278   1.081       .  S
C1276      C1277   1.390       .  A
C1276      C1577   1.487       .  S
C1277      H1279   1.081       .  S
Cu1280     N1283   2.067       .  S
Cu1281     N1291   2.075       .  S
Cu1282     N1284   2.082       .  S
Cu1282     N1290   2.083       .  S
N1283      N1284   1.321       .  A
N1283      C1287   1.344       .  A
N1284      C1285   1.347       .  A
C1285      C1286   1.387       .  A
C1285      H1288   1.082       .  S
C1286      C1287   1.383       .  A
C1286      C1545   1.477       .  S
C1287      H1289   1.082       .  S
N1290      N1291   1.322       .  A
N1290      C1294   1.346       .  A
N1291      C1292   1.344       .  A
C1292      C1293   1.388       .  A
C1292      H1295   1.081       .  S
C1293      C1294   1.389       .  A
C1293      C1929   1.489       .  S
C1294      H1296   1.081       .  S
N1297      N1298   1.322       .  A
N1297      C1301   1.349       .  A
N1297     Cu1305   2.095       .  S
N1298      C1299   1.348       .  A
N1298     Cu1304   2.084       .  S
C1299      C1300   1.389       .  A
C1299      H1302   1.082       .  S
C1300      C1301   1.390       .  A
C1300      C1505   1.492       .  S
C1301      H1303   1.082       .  S
Cu1304     N1307   2.084       .  S
Cu1305     N1315   2.096       .  S
Cu1306     N1308   2.101       .  S
Cu1306     N1314   2.101       .  S
N1307      N1308   1.324       .  A
N1307      C1311   1.347       .  A
N1308      C1309   1.349       .  A
C1309      C1310   1.389       .  A
C1309      H1312   1.082       .  S
C1310      C1311   1.385       .  A
C1310      C1521   1.486       .  S
C1311      H1313   1.082       .  S
N1314      N1315   1.323       .  A
N1314      C1318   1.353       .  A
N1315      C1316   1.347       .  A
C1316      C1317   1.389       .  A
C1316      H1319   1.082       .  S
C1317      C1318   1.391       .  A
C1317      C1913   1.495       .  S
C1318      H1320   1.082       .  S
N1321      N1322   1.324       .  A
N1321      C1325   1.355       .  A
N1321     Cu1329   2.117       .  S
N1322      C1323   1.343       .  A
N1322     Cu1328   2.076       .  S
C1323      C1324   1.382       .  A
C1323      H1326   1.082       .  S
C1324      C1325   1.395       .  A
C1324      C1497   1.492       .  S
C1325      H1327   1.082       .  S
Cu1328     N1331   2.076       .  S
Cu1329     N1339   2.117       .  S
Cu1330     N1332   2.089       .  S
Cu1330     N1338   2.090       .  S
N1331      N1332   1.320       .  A
N1331      C1335   1.348       .  A
N1332      C1333   1.348       .  A
C1333      C1334   1.390       .  A
C1333      H1336   1.082       .  S
C1334      C1335   1.387       .  A
C1334      C1513   1.488       .  S
C1335      H1337   1.082       .  S
N1338      N1339   1.324       .  A
N1338      C1342   1.345       .  A
N1339      C1340   1.354       .  A
C1340      C1341   1.395       .  A
C1340      H1343   1.082       .  S
C1341      C1342   1.389       .  A
C1341      C2633   1.500       .  S
C1342      H1344   1.081       .  S
N1345      N1346   1.320       .  A
N1345      C1349   1.345       .  A
N1345     Cu1353   2.077       .  S
N1346      C1347   1.346       .  A
N1346     Cu1352   2.073       .  S
C1347      C1348   1.388       .  A
C1347      H1350   1.082       .  S
C1348      C1349   1.388       .  A
C1348      C1473   1.485       .  S
C1349      H1351   1.082       .  S
Cu1352     N1355   2.074       .  S
Cu1353     N1363   2.077       .  S
Cu1354     N1356   2.110       .  S
Cu1354     N1362   2.109       .  S
N1355      N1356   1.324       .  A
N1355      C1359   1.344       .  A
N1356      C1357   1.351       .  A
C1357      C1358   1.393       .  A
C1357      H1360   1.082       .  S
C1358      C1359   1.384       .  A
C1358      C1457   1.490       .  S
C1359      H1361   1.082       .  S
N1362      N1363   1.323       .  A
N1362      C1366   1.353       .  A
N1363      C1364   1.343       .  A
C1364      C1365   1.388       .  A
C1364      H1367   1.080       .  S
C1365      C1366   1.395       .  A
C1365      C2073   1.498       .  S
C1366      H1368   1.081       .  S
N1369      N1370   1.324       .  A
N1369      C1373   1.351       .  A
N1369     Cu1377   2.112       .  S
N1370      C1371   1.347       .  A
N1370     Cu1376   2.082       .  S
C1371      C1372   1.385       .  A
C1371      H1374   1.082       .  S
C1372      C1373   1.393       .  A
C1372      C1489   1.493       .  S
C1373      H1375   1.082       .  S
Cu1376     N1379   2.081       .  S
Cu1377     N1387   2.111       .  S
Cu1378     N1380   2.098       .  S
Cu1378     N1386   2.099       .  S
N1379      N1380   1.322       .  A
N1379      C1383   1.347       .  A
N1380      C1381   1.350       .  A
C1381      C1382   1.392       .  A
C1381      H1384   1.082       .  S
C1382      C1383   1.387       .  A
C1382      C1441   1.492       .  S
C1383      H1385   1.082       .  S
N1386      N1387   1.324       .  A
N1386      C1390   1.346       .  A
N1387      C1388   1.355       .  A
C1388      C1389   1.394       .  A
C1388      H1391   1.082       .  S
C1389      C1390   1.392       .  A
C1389      C2441   1.503       .  S
C1390      H1392   1.081       .  S
N1393      N1394   1.324       .  A
N1393      C1397   1.353       .  A
N1393     Cu1401   2.120       .  S
N1394      C1395   1.344       .  A
N1394     Cu1400   2.067       .  S
C1395      C1396   1.382       .  A
C1395      H1398   1.082       .  S
C1396      C1397   1.394       .  A
C1396      C1449   1.490       .  S
C1397      H1399   1.082       .  S
Cu1400     N1403   2.066       .  S
Cu1401     N1411   2.120       .  S
Cu1402     N1404   2.087       .  S
Cu1402     N1410   2.089       .  S
N1403      N1404   1.320       .  A
N1403      C1407   1.344       .  A
N1404      C1405   1.349       .  A
C1405      C1406   1.389       .  A
C1405      H1408   1.082       .  S
C1406      C1407   1.383       .  A
C1406      C1481   1.480       .  S
C1407      H1409   1.082       .  S
N1410      N1411   1.324       .  A
N1410      C1414   1.344       .  A
N1411      C1412   1.356       .  A
C1412      C1413   1.396       .  A
C1412      H1415   1.082       .  S
C1413      C1414   1.389       .  A
C1413      C2249   1.501       .  S
C1414      H1416   1.081       .  S
N1417      N1418   1.321       .  A
N1417      C1421   1.346       .  A
N1417     Cu1425   2.081       .  S
N1418      C1419   1.348       .  A
N1418     Cu1424   2.086       .  S
C1419      C1420   1.389       .  A
C1419      H1422   1.082       .  S
C1420      C1421   1.388       .  A
C1420      C1529   1.489       .  S
C1421      H1423   1.082       .  S
Cu1424     N1427   2.087       .  S
Cu1425     N1435   2.082       .  S
Cu1426     N1428   2.105       .  S
Cu1426     N1434   2.105       .  S
N1427      N1428   1.325       .  A
N1427      C1431   1.347       .  A
N1428      C1429   1.350       .  A
C1429      C1430   1.389       .  A
C1429      H1432   1.082       .  S
C1430      C1431   1.384       .  A
C1430      C1465   1.486       .  S
C1431      H1433   1.082       .  S
N1434      N1435   1.322       .  A
N1434      C1438   1.353       .  A
N1435      C1436   1.343       .  A
C1436      C1437   1.390       .  A
C1436      H1439   1.081       .  S
C1437      C1438   1.396       .  A
C1437      C1609   1.500       .  S
C1438      H1440   1.081       .  S
C1441      C1442   1.406       .  A
C1441      C1446   1.411       .  A
C1442      C1443   1.400   1_655  A
C1442      H1451   1.082       .  S
C1443      C1444   1.403       .  A
C1443      H1452   1.084       .  S
C1444      C1450   1.408       .  A
C1444      C1445   1.412       .  A
C1445      C1447   1.406       .  A
C1445      C1446   1.411   1_455  A
C1446      H1453   1.084       .  S
C1447      C1448   1.403       .  A
C1447      H1454   1.083       .  S
C1448      C1449   1.405       .  A
C1448      H1455   1.083       .  S
C1449      C1450   1.410       .  A
C1450      H1456   1.084       .  S
C1457      C1458   1.406       .  A
C1457      C1462   1.410       .  A
C1458      C1459   1.402       .  A
C1458      H1467   1.082       .  S
C1459      C1460   1.404       .  A
C1459      H1468   1.083       .  S
C1460      C1466   1.410       .  A
C1460      C1461   1.413       .  A
C1461      C1463   1.404       .  A
C1461      C1462   1.408       .  A
C1462      H1469   1.083       .  S
C1463      C1464   1.400       .  A
C1463      H1470   1.083       .  S
C1464      C1465   1.405       .  A
C1464      H1471   1.083       .  S
C1465      C1466   1.409       .  A
C1466      H1472   1.084       .  S
C1473      C1474   1.406       .  A
C1473      C1478   1.409       .  A
C1474      C1475   1.397   1_556  A
C1474      H1483   1.082       .  S
C1475      C1476   1.401       .  A
C1475      H1484   1.084       .  S
C1476      C1482   1.405       .  A
C1476      C1477   1.414       .  A
C1477      C1479   1.404       .  A
C1477      C1478   1.408   1_554  A
C1478      H1485   1.083       .  S
C1479      C1480   1.400       .  A
C1479      H1486   1.083       .  S
C1480      C1481   1.404       .  A
C1480      H1487   1.083       .  S
C1481      C1482   1.405       .  A
C1482      H1488   1.084       .  S
C1489      C1490   1.405       .  A
C1489      C1494   1.412       .  A
C1490      C1491   1.400       .  A
C1490      H1499   1.083       .  S
C1491      C1492   1.404       .  A
C1491      H1500   1.084       .  S
C1492      C1498   1.408       .  A
C1492      C1493   1.412       .  A
C1493      C1495   1.406       .  A
C1493      C1494   1.412       .  A
C1494      H1501   1.084       .  S
C1495      C1496   1.405       .  A
C1495      H1502   1.083       .  S
C1496      C1497   1.405       .  A
C1496      H1503   1.083       .  S
C1497      C1498   1.410       .  A
C1498      H1504   1.084       .  S
C1505      C1506   1.407       .  A
C1505      C1510   1.409   1_556  A
C1506      C1507   1.402   1_556  A
C1506      H1515   1.082       .  S
C1507      C1508   1.404       .  A
C1507      H1516   1.083       .  S
C1508      C1514   1.411       .  A
C1508      C1509   1.414       .  A
C1509      C1511   1.403       .  A
C1509      C1510   1.409       .  A
C1510      H1517   1.083   1_554  S
C1511      C1512   1.399       .  A
C1511      H1518   1.084       .  S
C1512      C1513   1.405       .  A
C1512      H1519   1.083       .  S
C1513      C1514   1.409       .  A
C1514      H1520   1.084       .  S
C1521      C1522   1.405       .  A
C1521      C1526   1.408       .  A
C1522      C1523   1.399       .  A
C1522      H1531   1.083       .  S
C1523      C1524   1.403   1_655  A
C1523      H1532   1.084       .  S
C1524      C1530   1.409       .  A
C1524      C1525   1.414       .  A
C1525      C1527   1.403       .  A
C1525      C1526   1.410   1_455  A
C1526      H1533   1.084       .  S
C1527      C1528   1.400       .  A
C1527      H1534   1.083       .  S
C1528      C1529   1.407       .  A
C1528      H1535   1.082       .  S
C1529      C1530   1.408       .  A
C1530      H1536   1.084       .  S
C1537      C1538   1.408       .  A
C1537      C1542   1.405       .  A
C1538      C1539   1.397       .  A
C1538      H1547   1.082       .  S
C1539      C1540   1.401       .  A
C1539      H1548   1.085       .  S
C1540      C1546   1.405       .  A
C1540      C1541   1.414       .  A
C1541      C1543   1.403       .  A
C1541      C1542   1.404       .  A
C1542      H1549   1.092       .  S
C1543      C1544   1.399       .  A
C1543      H1550   1.086       .  S
C1544      C1545   1.404       .  A
C1544      H1551   1.083       .  S
C1545      C1546   1.404       .  A
C1546      H1552   1.085       .  S
C1553      C1554   1.403       .  A
C1553      C1558   1.404       .  A
C1554      C1555   1.392       .  A
C1554      H1563   1.083       .  S
C1555      C1556   1.399       .  A
C1555      H1564   1.086       .  S
C1556      C1562   1.397       .  A
C1556      C1557   1.416       .  A
C1557      C1559   1.402       .  A
C1557      C1558   1.405       .  A
C1558      H1565   1.085       .  S
C1559      C1560   1.398       .  A
C1559      H1566   1.085       .  S
C1560      C1561   1.407       .  A
C1560      H1567   1.083       .  S
C1561      C1562   1.398       .  A
C1562      H1568   1.093       .  S
C1569      C1570   1.406       .  A
C1569      C1574   1.409       .  A
C1570      C1571   1.391       .  A
C1570      H1579   1.082       .  S
C1571      C1572   1.399       .  A
C1571      H1580   1.084       .  S
C1572      C1578   1.398       .  A
C1572      C1573   1.412       .  A
C1573      C1575   1.404       .  A
C1573      C1574   1.407       .  A
C1574      H1581   1.083       .  S
C1575      C1576   1.402       .  A
C1575      H1582   1.084       .  S
C1576      C1577   1.408       .  A
C1576      H1583   1.082       .  S
C1577      C1578   1.406       .  A
C1578      H1584   1.081       .  S
C1585      C1586   1.402       .  A
C1585      C1590   1.404       .  A
C1586      C1587   1.396       .  A
C1586      H1595   1.084       .  S
C1587      C1588   1.403       .  A
C1587      H1596   1.084       .  S
C1588      C1594   1.403       .  A
C1588      C1589   1.414       .  A
C1589      C1591   1.403       .  A
C1589      C1590   1.406       .  A
C1590      H1597   1.084       .  S
C1591      C1592   1.400       .  A
C1591      H1598   1.084       .  S
C1592      C1593   1.406       .  A
C1592      H1599   1.082       .  S
C1593      C1594   1.407       .  A
C1594      H1600   1.083       .  S
C1601      C1602   1.404       .  A
C1601      C1606   1.404       .  A
C1602      C1603   1.405       .  A
C1602      H1611   1.083       .  S
C1603      C1604   1.407       .  A
C1603      H1612   1.083       .  S
C1604      C1610   1.416       .  A
C1604      C1605   1.414       .  A
C1605      C1607   1.399       .  A
C1605      C1606   1.408       .  A
C1606      H1613   1.085       .  S
C1607      C1608   1.397       .  A
C1607      H1614   1.084       .  S
C1608      C1609   1.410       .  A
C1608      H1615   1.080       .  S
C1609      C1610   1.414       .  A
C1610      H1616   1.083       .  S
C1617      C1618   1.408       .  A
C1617      C1622   1.411       .  A
C1618      C1619   1.390       .  A
C1618      H1627   1.082       .  S
C1619      C1620   1.397       .  A
C1619      H1628   1.084       .  S
C1620      C1626   1.398       .  A
C1620      C1621   1.411       .  A
C1621      C1623   1.405       .  A
C1621      C1622   1.410       .  A
C1622      H1629   1.083       .  S
C1623      C1624   1.404       .  A
C1623      H1630   1.083       .  S
C1624      C1625   1.408       .  A
C1624      H1631   1.082       .  S
C1625      C1626   1.406       .  A
C1626      H1632   1.081       .  S
C1633      C1634   1.412       .  A
C1633      C1638   1.422       .  A
C1634      C1635   1.385       .  A
C1634      H1643   1.084       .  S
C1635      C1636   1.392       .  A
C1635      H1644   1.084       .  S
C1636      C1642   1.399       .  A
C1636      C1637   1.412       .  A
C1637      C1639   1.415       .  A
C1637      C1638   1.431       .  A
C1638      H1645   1.082       .  S
C1639      C1640   1.420       .  A
C1639      H1646   1.083       .  S
C1640      C1641   1.411       .  A
C1640      H1647   1.081       .  S
C1641      C1642   1.408       .  A
C1642      H1648   1.085       .  S
C1649      C1650   1.400       .  A
C1649      C1654   1.405       .  A
C1650      C1651   1.397       .  A
C1650      H1659   1.084       .  S
C1651      C1652   1.404       .  A
C1651      H1660   1.082       .  S
C1652      C1658   1.402       .  A
C1652      C1653   1.413       .  A
C1653      C1655   1.404       .  A
C1653      C1654   1.405       .  A
C1654      H1661   1.083       .  S
C1655      C1656   1.401       .  A
C1655      H1662   1.082       .  S
C1656      C1657   1.405       .  A
C1656      H1663   1.083       .  S
C1657      C1658   1.408       .  A
C1658      H1664   1.082       .  S
C1665      C1666   1.403       .  A
C1665      C1670   1.402       .  A
C1666      C1667   1.398       .  A
C1666      H1675   1.083       .  S
C1667      C1668   1.403       .  A
C1667      H1676   1.084       .  S
C1668      C1674   1.403       .  A
C1668      C1669   1.413       .  A
C1669      C1671   1.398       .  A
C1669      C1670   1.399       .  A
C1670      H1677   1.085       .  S
C1671      C1672   1.394       .  A
C1671      H1678   1.084       .  S
C1672      C1673   1.409       .  A
C1672      H1679   1.081       .  S
C1673      C1674   1.408       .  A
C1674      H1680   1.082       .  S
C1681      C1682   1.405       .  A
C1681      C1686   1.410       .  A
C1682      C1683   1.389       .  A
C1682      H1691   1.083       .  S
C1683      C1684   1.398       .  A
C1683      H1692   1.084       .  S
C1684      C1690   1.396       .  A
C1684      C1685   1.412       .  A
C1685      C1687   1.406       .  A
C1685      C1686   1.412       .  A
C1686      H1693   1.084       .  S
C1687      C1688   1.406       .  A
C1687      H1694   1.083       .  S
C1688      C1689   1.408       .  A
C1688      H1695   1.082       .  S
C1689      C1690   1.406       .  A
C1690      H1696   1.080       .  S
C1697      C1698   1.412       .  A
C1697      C1702   1.423       .  A
C1698      C1699   1.381       .  A
C1698      H1707   1.084       .  S
C1699      C1700   1.390       .  A
C1699      H1708   1.084       .  S
C1700      C1706   1.394       .  A
C1700      C1701   1.411       .  A
C1701      C1703   1.416       .  A
C1701      C1702   1.431       .  A
C1702      H1709   1.082       .  S
C1703      C1704   1.421       .  A
C1703      H1710   1.083       .  S
C1704      C1705   1.410       .  A
C1704      H1711   1.081       .  S
C1705      C1706   1.406       .  A
C1706      H1712   1.085       .  S
C1713      C1714   1.407       .  A
C1713      C1718   1.408       .  A
C1714      C1715   1.398       .  A
C1714      H1723   1.081       .  S
C1715      C1716   1.401       .  A
C1715      H1724   1.084       .  S
C1716      C1722   1.405       .  A
C1716      C1717   1.413       .  A
C1717      C1719   1.402       .  A
C1717      C1718   1.404       .  A
C1718      H1725   1.082       .  S
C1719      C1720   1.397       .  A
C1719      H1726   1.084       .  S
C1720      C1721   1.405       .  A
C1720      H1727   1.083       .  S
C1721      C1722   1.407       .  A
C1722      H1728   1.083       .  S
C1729      C1730   1.405       .  A
C1729      C1734   1.406       .  A
C1730      C1731   1.396       .  A
C1730      H1739   1.083       .  S
C1731      C1732   1.402       .  A
C1731      H1740   1.084       .  S
C1732      C1738   1.400       .  A
C1732      C1733   1.412       .  A
C1733      C1735   1.404       .  A
C1733      C1734   1.403       .  A
C1734      H1741   1.082       .  S
C1735      C1736   1.400       .  A
C1735      H1742   1.084       .  S
C1736      C1737   1.403       .  A
C1736      H1743   1.083       .  S
C1737      C1738   1.406       .  A
C1738      H1744   1.084       .  S
C1745      C1746   1.402       .  A
C1745      C1750   1.405       .  A
C1746      C1747   1.398       .  A
C1746      H1755   1.084       .  S
C1747      C1748   1.403       .  A
C1747      H1756   1.083       .  S
C1748      C1754   1.404       .  A
C1748      C1749   1.414       .  A
C1749      C1751   1.403       .  A
C1749      C1750   1.406       .  A
C1750      H1757   1.084       .  S
C1751      C1752   1.400       .  A
C1751      H1758   1.083       .  S
C1752      C1753   1.405       .  A
C1752      H1759   1.082       .  S
C1753      C1754   1.408       .  A
C1754      H1760   1.083       .  S
C1761      C1762   1.407       .  A
C1761      C1766   1.412       .  A
C1762      C1763   1.392       .  A
C1762      H1771   1.082       .  S
C1763      C1764   1.399       .  A
C1763      H1772   1.084       .  S
C1764      C1770   1.398       .  A
C1764      C1765   1.411       .  A
C1765      C1767   1.406       .  A
C1765      C1766   1.409       .  A
C1766      H1773   1.081       .  S
C1767      C1768   1.404       .  A
C1767      H1774   1.084       .  S
C1768      C1769   1.406       .  A
C1768      H1775   1.082       .  S
C1769      C1770   1.407       .  A
C1770      H1776   1.082       .  S
C1777      C1778   1.404       .  A
C1777      C1782   1.408       .  A
C1778      C1779   1.395       .  A
C1778      H1787   1.083       .  S
C1779      C1780   1.402       .  A
C1779      H1788   1.084       .  S
C1780      C1786   1.400       .  A
C1780      C1781   1.412       .  A
C1781      C1783   1.405       .  A
C1781      C1782   1.407       .  A
C1782      H1789   1.084       .  S
C1783      C1784   1.402       .  A
C1783      H1790   1.083       .  S
C1784      C1785   1.405       .  A
C1784      H1791   1.082       .  S
C1785      C1786   1.408       .  A
C1786      H1792   1.083       .  S
C1793      C1794   1.407       .  A
C1793      C1798   1.409       .  A
C1794      C1795   1.400       .  A
C1794      H1803   1.082       .  S
C1795      C1796   1.402   1_655  A
C1795      H1804   1.084   1_655  S
C1796      C1802   1.408       .  A
C1796      C1797   1.413   1_455  A
C1797      C1799   1.402   1_655  A
C1797      C1798   1.407       .  A
C1798      H1805   1.083       .  S
C1799      C1800   1.399       .  A
C1799      H1806   1.084       .  S
C1800      C1801   1.406       .  A
C1800      H1807   1.082       .  S
C1801      C1802   1.408       .  A
C1802      H1808   1.084       .  S
C1809      C1810   1.407       .  A
C1809      C1814   1.406       .  A
C1810      C1811   1.398       .  A
C1810      H1819   1.080       .  S
C1811      C1812   1.400       .  A
C1811      H1820   1.084       .  S
C1812      C1818   1.408       .  A
C1812      C1813   1.415       .  A
C1813      C1815   1.400       .  A
C1813      C1814   1.404       .  A
C1814      H1821   1.084       .  S
C1815      C1816   1.395       .  A
C1815      H1822   1.084       .  S
C1816      C1817   1.405       .  A
C1816      H1823   1.083       .  S
C1817      C1818   1.404       .  A
C1818      H1824   1.084       .  S
C1825      C1826   1.404       .  A
C1825      C1830   1.406       .  A
C1826      C1827   1.399       .  A
C1826      H1835   1.083       .  S
C1827      C1828   1.403       .  A
C1827      H1836   1.083       .  S
C1828      C1834   1.401       .  A
C1828      C1829   1.413       .  A
C1829      C1831   1.402       .  A
C1829      C1830   1.398       .  A
C1830      H1837   1.083       .  S
C1831      C1832   1.395       .  A
C1831      H1838   1.083       .  S
C1832      C1833   1.402       .  A
C1832      H1839   1.083       .  S
C1833      C1834   1.404       .  A
C1834      H1840   1.084       .  S
C1841      C1842   1.412       .  A
C1841      C1846   1.420       .  A
C1842      C1843   1.405       .  A
C1842      H1851   1.083       .  S
C1843      C1844   1.405       .  A
C1843      H1852   1.083       .  S
C1844      C1850   1.416       .  A
C1844      C1845   1.409       .  A
C1845      C1847   1.404       .  A
C1845      C1846   1.415       .  A
C1846      H1853   1.079       .  S
C1847      C1848   1.403       .  A
C1847      H1854   1.084       .  S
C1848      C1849   1.412       .  A
C1848      H1855   1.082       .  S
C1849      C1850   1.420       .  A
C1850      H1856   1.082       .  S
C1857      C1858   1.408       .  A
C1857      C1862   1.411       .  A
C1858      C1859   1.392       .  A
C1858      H1867   1.081       .  S
C1859      C1860   1.398       .  A
C1859      H1868   1.084       .  S
C1860      C1866   1.400       .  A
C1860      C1861   1.411       .  A
C1861      C1863   1.405       .  A
C1861      C1862   1.408       .  A
C1862      H1869   1.081       .  S
C1863      C1864   1.403       .  A
C1863      H1870   1.084       .  S
C1864      C1865   1.407       .  A
C1864      H1871   1.082       .  S
C1865      C1866   1.407       .  A
C1866      H1872   1.082       .  S
C1873      C1874   1.404       .  A
C1873      C1878   1.408       .  A
C1874      C1875   1.393       .  A
C1874      H1883   1.083       .  S
C1875      C1876   1.400       .  A
C1875      H1884   1.084       .  S
C1876      C1882   1.400       .  A
C1876      C1877   1.413       .  A
C1877      C1879   1.406       .  A
C1877      C1878   1.409       .  A
C1878      H1885   1.084       .  S
C1879      C1880   1.404       .  A
C1879      H1886   1.083       .  S
C1880      C1881   1.406       .  A
C1880      H1887   1.082       .  S
C1881      C1882   1.407       .  A
C1882      H1888   1.083       .  S
C1889      C1890   1.414       .  A
C1889      C1894   1.420       .  A
C1890      C1891   1.405       .  A
C1890      H1899   1.082       .  S
C1891      C1892   1.403       .  A
C1891      H1900   1.083       .  S
C1892      C1898   1.418       .  A
C1892      C1893   1.409       .  A
C1893      C1895   1.403       .  A
C1893      C1894   1.417       .  A
C1894      H1901   1.082       .  S
C1895      C1896   1.404       .  A
C1895      H1902   1.083       .  S
C1896      C1897   1.414       .  A
C1896      H1903   1.082       .  S
C1897      C1898   1.419       .  A
C1898      H1904   1.081       .  S
C1905      C1906   1.404       .  A
C1905      C1910   1.407       .  A
C1906      C1907   1.408       .  A
C1906      H1915   1.083       .  S
C1907      C1908   1.409       .  A
C1907      H1916   1.083       .  S
C1908      C1914   1.417       .  A
C1908      C1909   1.413       .  A
C1909      C1911   1.402       .  A
C1909      C1910   1.408       .  A
C1910      H1917   1.082       .  S
C1911      C1912   1.398       .  A
C1911      H1918   1.083       .  S
C1912      C1913   1.406       .  A
C1912      H1919   1.083       .  S
C1913      C1914   1.413       .  A
C1914      H1920   1.083       .  S
C1921      C1922   1.406       .  A
C1921      C1926   1.407       .  A
C1922      C1923   1.398       .  A
C1922      H1931   1.082       .  S
C1923      C1924   1.402       .  A
C1923      H1932   1.083       .  S
C1924      C1930   1.405       .  A
C1924      C1925   1.412       .  A
C1925      C1927   1.401       .  A
C1925      C1926   1.405       .  A
C1926      H1933   1.083       .  S
C1927      C1928   1.397       .  A
C1927      H1934   1.083       .  S
C1928      C1929   1.408       .  A
C1928      H1935   1.081       .  S
C1929      C1930   1.409       .  A
C1930      H1936   1.082       .  S
C1937      C1938   1.407       .  A
C1937      C1942   1.406       .  A
C1938      C1939   1.389       .  A
C1938      H1947   1.083       .  S
C1939      C1940   1.398       .  A
C1939      H1948   1.084       .  S
C1940      C1946   1.397       .  A
C1940      C1941   1.413       .  A
C1941      C1943   1.403       .  A
C1941      C1942   1.407       .  A
C1942      H1949   1.084       .  S
C1943      C1944   1.402       .  A
C1943      H1950   1.084       .  S
C1944      C1945   1.407       .  A
C1944      H1951   1.082       .  S
C1945      C1946   1.405       .  A
C1946      H1952   1.081       .  S
C1953      C1954   1.407       .  A
C1953      C1958   1.407       .  A
C1954      C1955   1.396       .  A
C1954      H1963   1.082       .  S
C1955      C1956   1.400       .  A
C1955      H1964   1.083       .  S
C1956      C1962   1.404   1_545  A
C1956      C1957   1.414       .  A
C1957      C1959   1.402       .  A
C1957      C1958   1.406       .  A
C1958      H1965   1.083       .  S
C1959      C1960   1.398   1_545  A
C1959      H1966   1.083       .  S
C1960      C1961   1.406       .  A
C1960      H1967   1.082       .  S
C1961      C1962   1.405       .  A
C1962      H1968   1.083       .  S
C1969      C1970   1.404       .  A
C1969      C1974   1.405       .  A
C1970      C1971   1.390       .  A
C1970      H1979   1.083       .  S
C1971      C1972   1.399       .  A
C1971      H1980   1.084       .  S
C1972      C1978   1.396       .  A
C1972      C1973   1.414       .  A
C1973      C1975   1.405       .  A
C1973      C1974   1.407       .  A
C1974      H1981   1.084       .  S
C1975      C1976   1.402       .  A
C1975      H1982   1.083       .  S
C1976      C1977   1.405       .  A
C1976      H1983   1.083       .  S
C1977      C1978   1.404       .  A
C1978      H1984   1.083       .  S
C1985      C1986   1.406       .  A
C1985      C1990   1.405       .  A
C1986      C1987   1.399       .  A
C1986      H1995   1.083       .  S
C1987      C1988   1.403       .  A
C1987      H1996   1.083       .  S
C1988      C1994   1.408       .  A
C1988      C1989   1.415       .  A
C1989      C1991   1.401       .  A
C1989      C1990   1.405       .  A
C1990      H1997   1.084       .  S
C1991      C1992   1.397       .  A
C1991      H1998   1.083       .  S
C1992      C1993   1.405       .  A
C1992      H1999   1.083       .  S
C1993      C1994   1.406       .  A
C1994      H2000   1.084       .  S
C2001      C2002   1.404       .  A
C2001      C2006   1.407       .  A
C2002      C2003   1.391       .  A
C2002      H2011   1.083       .  S
C2003      C2004   1.399       .  A
C2003      H2012   1.084       .  S
C2004      C2010   1.398       .  A
C2004      C2005   1.413       .  A
C2005      C2007   1.406       .  A
C2005      C2006   1.411       .  A
C2006      H2013   1.084       .  S
C2007      C2008   1.405       .  A
C2007      H2014   1.083       .  S
C2008      C2009   1.407       .  A
C2008      H2015   1.082       .  S
C2009      C2010   1.406       .  A
C2010      H2016   1.082       .  S
C2017      C2018   1.407       .  A
C2017      C2022   1.408       .  A
C2018      C2019   1.402       .  A
C2018      H2027   1.082       .  S
C2019      C2020   1.404       .  A
C2019      H2028   1.083       .  S
C2020      C2026   1.409       .  A
C2020      C2021   1.412       .  A
C2021      C2023   1.399       .  A
C2021      C2022   1.402       .  A
C2022      H2029   1.082       .  S
C2023      C2024   1.394       .  A
C2023      H2030   1.084       .  S
C2024      C2025   1.408       .  A
C2024      H2031   1.082       .  S
C2025      C2026   1.409       .  A
C2026      H2032   1.083       .  S
C2033      C2034   1.402       .  A
C2033      C2038   1.404       .  A
C2034      C2035   1.398       .  A
C2034      H2043   1.083       .  S
C2035      C2036   1.404       .  A
C2035      H2044   1.084       .  S
C2036      C2042   1.404       .  A
C2036      C2037   1.414       .  A
C2037      C2039   1.402       .  A
C2037      C2038   1.402       .  A
C2038      H2045   1.085       .  S
C2039      C2040   1.397       .  A
C2039      H2046   1.084       .  S
C2040      C2041   1.405       .  A
C2040      H2047   1.082       .  S
C2041      C2042   1.408       .  A
C2042      H2048   1.084       .  S
C2049      C2050   1.410       .  A
C2049      C2054   1.407       .  A
C2050      C2051   1.417       .  A
C2050      H2059   1.081       .  S
C2051      C2052   1.413       .  A
C2051      H2060   1.083       .  S
C2052      C2058   1.427       .  A
C2052      C2053   1.412       .  A
C2053      C2055   1.393       .  A
C2053      C2054   1.397       .  A
C2054      H2061   1.085       .  S
C2055      C2056   1.385       .  A
C2055      H2062   1.084       .  S
C2056      C2057   1.411       .  A
C2056      H2063   1.084       .  S
C2057      C2058   1.421       .  A
C2058      H2064   1.082       .  S
C2065      C2066   1.404       .  A
C2065      C2070   1.404       .  A
C2066      C2067   1.404       .  A
C2066      H2075   1.083       .  S
C2067      C2068   1.406       .  A
C2067      H2076   1.083       .  S
C2068      C2074   1.414       .  A
C2068      C2069   1.414       .  A
C2069      C2071   1.399       .  A
C2069      C2070   1.407       .  A
C2070      H2077   1.085       .  S
C2071      C2072   1.396       .  A
C2071      H2078   1.084       .  S
C2072      C2073   1.410       .  A
C2072      H2079   1.080       .  S
C2073      C2074   1.412       .  A
C2074      H2080   1.083       .  S
C2081      C2082   1.404       .  A
C2081      C2086   1.406       .  A
C2082      C2083   1.396       .  A
C2082      H2091   1.083       .  S
C2083      C2084   1.402       .  A
C2083      H2092   1.084       .  S
C2084      C2090   1.402       .  A
C2084      C2085   1.414       .  A
C2085      C2087   1.403       .  A
C2085      C2086   1.405       .  A
C2086      H2093   1.084       .  S
C2087      C2088   1.399       .  A
C2087      H2094   1.083       .  S
C2088      C2089   1.404       .  A
C2088      H2095   1.083       .  S
C2089      C2090   1.404       .  A
C2090      H2096   1.084       .  S
C2097      C2098   1.405       .  A
C2097      C2102   1.410       .  A
C2098      C2099   1.392       .  A
C2098      H2107   1.083       .  S
C2099      C2100   1.399       .  A
C2099      H2108   1.084       .  S
C2100      C2106   1.397       .  A
C2100      C2101   1.413       .  A
C2101      C2103   1.407       .  A
C2101      C2102   1.408       .  A
C2102      H2109   1.084       .  S
C2103      C2104   1.404       .  A
C2103      H2110   1.083       .  S
C2104      C2105   1.404       .  A
C2104      H2111   1.083       .  S
C2105      C2106   1.403       .  A
C2106      H2112   1.085       .  S
C2113      C2114   1.411       .  A
C2113      C2118   1.403       .  A
C2114      C2115   1.419       .  A
C2114      H2123   1.081       .  S
C2115      C2116   1.414       .  A
C2115      H2124   1.083       .  S
C2116      C2122   1.431       .  A
C2116      C2117   1.413       .  A
C2117      C2119   1.388       .  A
C2117      C2118   1.394       .  A
C2118      H2125   1.085       .  S
C2119      C2120   1.379       .  A
C2119      H2126   1.084       .  S
C2120      C2121   1.414       .  A
C2120      H2127   1.084       .  S
C2121      C2122   1.420       .  A
C2122      H2128   1.082       .  S
C2129      C2130   1.406       .  A
C2129      C2134   1.408       .  A
C2130      C2131   1.397       .  A
C2130      H2139   1.082       .  S
C2131      C2132   1.401       .  A
C2131      H2140   1.084       .  S
C2132      C2138   1.405       .  A
C2132      C2133   1.413       .  A
C2133      C2135   1.402       .  A
C2133      C2134   1.406       .  A
C2134      H2141   1.083       .  S
C2135      C2136   1.399       .  A
C2135      H2142   1.084       .  S
C2136      C2137   1.408       .  A
C2136      H2143   1.082       .  S
C2137      C2138   1.407       .  A
C2138      H2144   1.083       .  S
C2145      C2146   1.405       .  A
C2145      C2150   1.406       .  A
C2146      C2147   1.394       .  A
C2146      H2155   1.083       .  S
C2147      C2148   1.400       .  A
C2147      H2156   1.083       .  S
C2148      C2154   1.400       .  A
C2148      C2149   1.414       .  A
C2149      C2151   1.405       .  A
C2149      C2150   1.407       .  A
C2150      H2157   1.084       .  S
C2151      C2152   1.401       .  A
C2151      H2158   1.083       .  S
C2152      C2153   1.404       .  A
C2152      H2159   1.083       .  S
C2153      C2154   1.403       .  A
C2154      H2160   1.084       .  S
C2161      C2162   1.408       .  A
C2161      C2166   1.407       .  A
C2162      C2163   1.399       .  A
C2162      H2171   1.081       .  S
C2163      C2164   1.402       .  A
C2163      H2172   1.084       .  S
C2164      C2170   1.405       .  A
C2164      C2165   1.413       .  A
C2165      C2167   1.401       .  A
C2165      C2166   1.400       .  A
C2166      H2173   1.082       .  S
C2167      C2168   1.393       .  A
C2167      H2174   1.084       .  S
C2168      C2169   1.404       .  A
C2168      H2175   1.083       .  S
C2169      C2170   1.403       .  A
C2170      H2176   1.084       .  S
C2177      C2178   1.403       .  A
C2177      C2182   1.406       .  A
C2178      C2179   1.394       .  A
C2178      H2187   1.083       .  S
C2179      C2180   1.400       .  A
C2179      H2188   1.084       .  S
C2180      C2186   1.402       .  A
C2180      C2181   1.414       .  A
C2181      C2183   1.403       .  A
C2181      C2182   1.409       .  A
C2182      H2189   1.084       .  S
C2183      C2184   1.401       .  A
C2183      H2190   1.083       .  S
C2184      C2185   1.408       .  A
C2184      H2191   1.082       .  S
C2185      C2186   1.406       .  A
C2186      H2192   1.083       .  S
C2193      C2194   1.409       .  A
C2193      C2198   1.408       .  A
C2194      C2195   1.394       .  A
C2194      H2203   1.081       .  S
C2195      C2196   1.399       .  A
C2195      H2204   1.084       .  S
C2196      C2202   1.403       .  A
C2196      C2197   1.412       .  A
C2197      C2199   1.402       .  A
C2197      C2198   1.407       .  A
C2198      H2205   1.083       .  S
C2199      C2200   1.400       .  A
C2199      H2206   1.083       .  S
C2200      C2201   1.407       .  A
C2200      H2207   1.082       .  S
C2201      C2202   1.408       .  A
C2202      H2208   1.082       .  S
C2209      C2210   1.403       .  A
C2209      C2214   1.405       .  A
C2210      C2211   1.396       .  A
C2210      H2219   1.083       .  S
C2211      C2212   1.402       .  A
C2211      H2220   1.084       .  S
C2212      C2218   1.403       .  A
C2212      C2213   1.414       .  A
C2213      C2215   1.402       .  A
C2213      C2214   1.407       .  A
C2214      H2221   1.084       .  S
C2215      C2216   1.399       .  A
C2215      H2222   1.084       .  S
C2216      C2217   1.408       .  A
C2216      H2223   1.082       .  S
C2217      C2218   1.407       .  A
C2218      H2224   1.083       .  S
C2225      C2226   1.413       .  A
C2225      C2230   1.420       .  A
C2226      C2227   1.405       .  A
C2226      H2235   1.082       .  S
C2227      C2228   1.404       .  A
C2227      H2236   1.083       .  S
C2228      C2234   1.416       .  A
C2228      C2229   1.409       .  A
C2229      C2231   1.404       .  A
C2229      C2230   1.416       .  A
C2230      H2237   1.082       .  S
C2231      C2232   1.405       .  A
C2231      H2238   1.083       .  S
C2232      C2233   1.412       .  A
C2232      H2239   1.082       .  S
C2233      C2234   1.420       .  A
C2234      H2240   1.082       .  S
C2241      C2242   1.405       .  A
C2241      C2246   1.406       .  A
C2242      C2243   1.409       .  A
C2242      H2251   1.083       .  S
C2243      C2244   1.409       .  A
C2243      H2252   1.083       .  S
C2244      C2250   1.419       .  A
C2244      C2245   1.413       .  A
C2245      C2247   1.400       .  A
C2245      C2246   1.407       .  A
C2246      H2253   1.080       .  S
C2247      C2248   1.397       .  A
C2247      H2254   1.083       .  S
C2248      C2249   1.409       .  A
C2248      H2255   1.081       .  S
C2249      C2250   1.415       .  A
C2250      H2256   1.083       .  S
C2257      C2258   1.407       .  A
C2257      C2262   1.410       .  A
C2258      C2259   1.396       .  A
C2258      H2267   1.082       .  S
C2259      C2260   1.401       .  A
C2259      H2268   1.083       .  S
C2260      C2266   1.404       .  A
C2260      C2261   1.412       .  A
C2261      C2263   1.404       .  A
C2261      C2262   1.408       .  A
C2262      H2269   1.083       .  S
C2263      C2264   1.401       .  A
C2263      H2270   1.083       .  S
C2264      C2265   1.406   1_554  A
C2264      H2271   1.083   1_554  S
C2265      C2266   1.407   1_556  A
C2266      H2272   1.083   1_554  S
C2273      C2274   1.404       .  A
C2273      C2278   1.406       .  A
C2274      C2275   1.402       .  A
C2274      H2283   1.083       .  S
C2275      C2276   1.405       .  A
C2275      H2284   1.083       .  S
C2276      C2282   1.405       .  A
C2276      C2277   1.411       .  A
C2277      C2279   1.401       .  A
C2277      C2278   1.398       .  A
C2278      H2285   1.083       .  S
C2279      C2280   1.393       .  A
C2279      H2286   1.083       .  S
C2280      C2281   1.404       .  A
C2280      H2287   1.083       .  S
C2281      C2282   1.407       .  A
C2282      H2288   1.079       .  S
C2289      C2290   1.410       .  A
C2289      C2294   1.411       .  A
C2290      C2291   1.395       .  A
C2290      H2299   1.081       .  S
C2291      C2292   1.399       .  A
C2291      H2300   1.084       .  S
C2292      C2298   1.400       .  A
C2292      C2293   1.411       .  A
C2293      C2295   1.406       .  A
C2293      C2294   1.405       .  A
C2294      H2301   1.079       .  S
C2295      C2296   1.401       .  A
C2295      H2302   1.084       .  S
C2296      C2297   1.403       .  A
C2296      H2303   1.083       .  S
C2297      C2298   1.404       .  A
C2298      H2304   1.085       .  S
C2305      C2306   1.404       .  A
C2305      C2310   1.410       .  A
C2306      C2307   1.395       .  A
C2306      H2315   1.083       .  S
C2307      C2308   1.401       .  A
C2307      H2316   1.084       .  S
C2308      C2314   1.400       .  A
C2308      C2309   1.411       .  A
C2309      C2311   1.406       .  A
C2309      C2310   1.408       .  A
C2310      H2317   1.084       .  S
C2311      C2312   1.403       .  A
C2311      H2318   1.083       .  S
C2312      C2313   1.406       .  A
C2312      H2319   1.082       .  S
C2313      C2314   1.408       .  A
C2314      H2320   1.082       .  S
C2321      C2322   1.413       .  A
C2321      C2326   1.421       .  A
C2322      C2323   1.404       .  A
C2322      H2331   1.082       .  S
C2323      C2324   1.404       .  A
C2323      H2332   1.083       .  S
C2324      C2330   1.414       .  A
C2324      C2325   1.408       .  A
C2325      C2327   1.404       .  A
C2325      C2326   1.415       .  A
C2326      H2333   1.082       .  S
C2327      C2328   1.405       .  A
C2327      H2334   1.083       .  S
C2328      C2329   1.412       .  A
C2328      H2335   1.083       .  S
C2329      C2330   1.420       .  A
C2330      H2336   1.079       .  S
C2337      C2338   1.408       .  A
C2337      C2342   1.407       .  A
C2338      C2339   1.397       .  A
C2338      H2347   1.081       .  S
C2339      C2340   1.400       .  A
C2339      H2348   1.084       .  S
C2340      C2346   1.406       .  A
C2340      C2341   1.415       .  A
C2341      C2343   1.402       .  A
C2341      C2342   1.406       .  A
C2342      H2349   1.083       .  S
C2343      C2344   1.397       .  A
C2343      H2350   1.084       .  S
C2344      C2345   1.405       .  A
C2344      H2351   1.083       .  S
C2345      C2346   1.404       .  A
C2346      H2352   1.084       .  S
C2353      C2354   1.406       .  A
C2353      C2358   1.406       .  A
C2354      C2355   1.400       .  A
C2354      H2363   1.082       .  S
C2355      C2356   1.403       .  A
C2355      H2364   1.084       .  S
C2356      C2362   1.408       .  A
C2356      C2357   1.414       .  A
C2357      C2359   1.399       .  A
C2357      C2358   1.402       .  A
C2358      H2365   1.084       .  S
C2359      C2360   1.394       .  A
C2359      H2366   1.084       .  S
C2360      C2361   1.408       .  A
C2360      H2367   1.082       .  S
C2361      C2362   1.407       .  A
C2362      H2368   1.084       .  S
C2369      C2370   1.407       .  A
C2369      C2374   1.408   1_655  A
C2370      C2371   1.402   1_655  A
C2370      H2379   1.083       .  S
C2371      C2372   1.404       .  A
C2371      H2380   1.083       .  S
C2372      C2378   1.411       .  A
C2372      C2373   1.414       .  A
C2373      C2375   1.402       .  A
C2373      C2374   1.409       .  A
C2374      H2381   1.084   1_455  S
C2375      C2376   1.399       .  A
C2375      H2382   1.084       .  S
C2376      C2377   1.407       .  A
C2376      H2383   1.082       .  S
C2377      C2378   1.410       .  A
C2378      H2384   1.083       .  S
C2385      C2386   1.407       .  A
C2385      C2390   1.408       .  A
C2386      C2387   1.399       .  A
C2386      H2395   1.081       .  S
C2387      C2388   1.402       .  A
C2387      H2396   1.083       .  S
C2388      C2394   1.405       .  A
C2388      C2389   1.412       .  A
C2389      C2391   1.400       .  A
C2389      C2390   1.401       .  A
C2390      H2397   1.081       .  S
C2391      C2392   1.394       .  A
C2391      H2398   1.083       .  S
C2392      C2393   1.407       .  A
C2392      H2399   1.083       .  S
C2393      C2394   1.406       .  A
C2394      H2400   1.080       .  S
C2401      C2402   1.401       .  A
C2401      C2406   1.405       .  A
C2402      C2403   1.394       .  A
C2402      H2411   1.083       .  S
C2403      C2404   1.401       .  A
C2403      H2412   1.084       .  S
C2404      C2410   1.398       .  A
C2404      C2405   1.414       .  A
C2405      C2407   1.404       .  A
C2405      C2406   1.402       .  A
C2406      H2413   1.084       .  S
C2407      C2408   1.399       .  A
C2407      H2414   1.083       .  S
C2408      C2409   1.403       .  A
C2408      H2415   1.083       .  S
C2409      C2410   1.403       .  A
C2410      H2416   1.085       .  S
C2417      C2418   1.405       .  A
C2417      C2422   1.407       .  A
C2418      C2419   1.402       .  A
C2418      H2427   1.083       .  S
C2419      C2420   1.405       .  A
C2419      H2428   1.084       .  S
C2420      C2426   1.408       .  A
C2420      C2421   1.412       .  A
C2421      C2423   1.400       .  A
C2421      C2422   1.403       .  A
C2422      H2429   1.083       .  S
C2423      C2424   1.395       .  A
C2423      H2430   1.084       .  S
C2424      C2425   1.409       .  A
C2424      H2431   1.081       .  S
C2425      C2426   1.410       .  A
C2426      H2432   1.082       .  S
C2433      C2434   1.405       .  A
C2433      C2438   1.406       .  A
C2434      C2435   1.408       .  A
C2434      H2443   1.083       .  S
C2435      C2436   1.408       .  A
C2435      H2444   1.083       .  S
C2436      C2442   1.419       .  A
C2436      C2437   1.413       .  A
C2437      C2439   1.400       .  A
C2437      C2438   1.408       .  A
C2438      H2445   1.085       .  S
C2439      C2440   1.397       .  A
C2439      H2446   1.084       .  S
C2440      C2441   1.409       .  A
C2440      H2447   1.081       .  S
C2441      C2442   1.416       .  A
C2442      H2448   1.083       .  S
C2449      C2450   1.409       .  A
C2449      C2454   1.410       .  A
C2450      C2451   1.394       .  A
C2450      H2459   1.080       .  S
C2451      C2452   1.398       .  A
C2451      H2460   1.084       .  S
C2452      C2458   1.401       .  A
C2452      C2453   1.412       .  A
C2453      C2455   1.403       .  A
C2453      C2454   1.407       .  A
C2454      H2461   1.082       .  S
C2455      C2456   1.400       .  A
C2455      H2462   1.084       .  S
C2456      C2457   1.406       .  A
C2456      H2463   1.082       .  S
C2457      C2458   1.407       .  A
C2458      H2464   1.083       .  S
C2465      C2466   1.402       .  A
C2465      C2470   1.405       .  A
C2466      C2467   1.394       .  A
C2466      H2475   1.083       .  S
C2467      C2468   1.401       .  A
C2467      H2476   1.084       .  S
C2468      C2474   1.399       .  A
C2468      C2469   1.414       .  A
C2469      C2471   1.404       .  A
C2469      C2470   1.405       .  A
C2470      H2477   1.084       .  S
C2471      C2472   1.400       .  A
C2471      H2478   1.083       .  S
C2472      C2473   1.405       .  A
C2472      H2479   1.083       .  S
C2473      C2474   1.404       .  A
C2474      H2480   1.084       .  S
C2481      C2482   1.411       .  A
C2481      C2486   1.407       .  A
C2482      C2483   1.419       .  A
C2482      H2491   1.081       .  S
C2483      C2484   1.414       .  A
C2483      H2492   1.083       .  S
C2484      C2490   1.431       .  A
C2484      C2485   1.412       .  A
C2485      C2487   1.391       .  A
C2485      C2486   1.396       .  A
C2486      H2493   1.085       .  S
C2487      C2488   1.382       .  A
C2487      H2494   1.084       .  S
C2488      C2489   1.413       .  A
C2488      H2495   1.084       .  S
C2489      C2490   1.421       .  A
C2490      H2496   1.082       .  S
C2497      C2498   1.404       .  A
C2497      C2502   1.409       .  A
C2498      C2499   1.396       .  A
C2498      H2507   1.083       .  S
C2499      C2500   1.402       .  A
C2499      H2508   1.084       .  S
C2500      C2506   1.401       .  A
C2500      C2501   1.412       .  A
C2501      C2503   1.407       .  A
C2501      C2502   1.409       .  A
C2502      H2509   1.084       .  S
C2503      C2504   1.405       .  A
C2503      H2510   1.083       .  S
C2504      C2505   1.404       .  A
C2504      H2511   1.083       .  S
C2505      C2506   1.407       .  A
C2506      H2512   1.084       .  S
C2513      C2514   1.406       .  A
C2513      C2518   1.408       .  A
C2514      C2515   1.401       .  A
C2514      H2523   1.082       .  S
C2515      C2516   1.404       .  A
C2515      H2524   1.084       .  S
C2516      C2522   1.407       .  A
C2516      C2517   1.413       .  A
C2517      C2519   1.403       .  A
C2517      C2518   1.403       .  A
C2518      H2525   1.083       .  S
C2519      C2520   1.397       .  A
C2519      H2526   1.084       .  S
C2520      C2521   1.402       .  A
C2520      H2527   1.084       .  S
C2521      C2522   1.406       .  A
C2522      H2528   1.084       .  S
C2529      C2530   1.412       .  A
C2529      C2534   1.419       .  A
C2530      C2531   1.402       .  A
C2530      H2539   1.082       .  S
C2531      C2532   1.403       .  A
C2531      H2540   1.083       .  S
C2532      C2538   1.414       .  A
C2532      C2533   1.409       .  A
C2533      C2535   1.404       .  A
C2533      C2534   1.416       .  A
C2534      H2541   1.081       .  S
C2535      C2536   1.405       .  A
C2535      H2542   1.083       .  S
C2536      C2537   1.412       .  A
C2536      H2543   1.083       .  S
C2537      C2538   1.419       .  A
C2538      H2544   1.077       .  S
C2545      C2546   1.405       .  A
C2545      C2550   1.405       .  A
C2546      C2547   1.397       .  A
C2546      H2555   1.083       .  S
C2547      C2548   1.401       .  A
C2547      H2556   1.083       .  S
C2548      C2554   1.404       .  A
C2548      C2549   1.414       .  A
C2549      C2551   1.401       .  A
C2549      C2550   1.404       .  A
C2550      H2557   1.083       .  S
C2551      C2552   1.396       .  A
C2551      H2558   1.083       .  S
C2552      C2553   1.407       .  A
C2552      H2559   1.082       .  S
C2553      C2554   1.406       .  A
C2554      H2560   1.083       .  S
C2561      C2562   1.408       .  A
C2561      C2566   1.408       .  A
C2562      C2563   1.397       .  A
C2562      H2571   1.081       .  S
C2563      C2564   1.400   1_545  A
C2563      H2572   1.083       .  S
C2564      C2570   1.406       .  A
C2564      C2565   1.414   1_565  A
C2565      C2567   1.402   1_545  A
C2565      C2566   1.408       .  A
C2566      H2573   1.083       .  S
C2567      C2568   1.399       .  A
C2567      H2574   1.083       .  S
C2568      C2569   1.406       .  A
C2568      H2575   1.083       .  S
C2569      C2570   1.406       .  A
C2570      H2576   1.083       .  S
C2577      C2578   1.407       .  A
C2577      C2582   1.408       .  A
C2578      C2579   1.399       .  A
C2578      H2587   1.082       .  S
C2579      C2580   1.402       .  A
C2579      H2588   1.084       .  S
C2580      C2586   1.407   1_554  A
C2580      C2581   1.412       .  A
C2581      C2583   1.401       .  A
C2581      C2582   1.407       .  A
C2582      H2589   1.083       .  S
C2583      C2584   1.399   1_554  A
C2583      H2590   1.084       .  S
C2584      C2585   1.408       .  A
C2584      H2591   1.081       .  S
C2585      C2586   1.410       .  A
C2586      H2592   1.082       .  S
C2593      C2594   1.403       .  A
C2593      C2598   1.410       .  A
C2594      C2595   1.393       .  A
C2594      H2603   1.083       .  S
C2595      C2596   1.400       .  A
C2595      H2604   1.084       .  S
C2596      C2602   1.399       .  A
C2596      C2597   1.413       .  A
C2597      C2599   1.406       .  A
C2597      C2598   1.409       .  A
C2598      H2605   1.084       .  S
C2599      C2600   1.404       .  A
C2599      H2606   1.083       .  S
C2600      C2601   1.405       .  A
C2600      H2607   1.083       .  S
C2601      C2602   1.403       .  A
C2602      H2608   1.084       .  S
C2609      C2610   1.407       .  A
C2609      C2614   1.408       .  A
C2610      C2611   1.405       .  A
C2610      H2619   1.082       .  S
C2611      C2612   1.406       .  A
C2611      H2620   1.083       .  S
C2612      C2618   1.410       .  A
C2612      C2613   1.411       .  A
C2613      C2615   1.398       .  A
C2613      C2614   1.398       .  A
C2614      H2621   1.080       .  S
C2615      C2616   1.391       .  A
C2615      H2622   1.084       .  S
C2616      C2617   1.408       .  A
C2616      H2623   1.082       .  S
C2617      C2618   1.412       .  A
C2618      H2624   1.082       .  S
C2625      C2626   1.404       .  A
C2625      C2630   1.406       .  A
C2626      C2627   1.405       .  A
C2626      H2635   1.083       .  S
C2627      C2628   1.407       .  A
C2627      H2636   1.083       .  S
C2628      C2634   1.415       .  A
C2628      C2629   1.413       .  A
C2629      C2631   1.400       .  A
C2629      C2630   1.408       .  A
C2630      H2637   1.084       .  S
C2631      C2632   1.398       .  A
C2631      H2638   1.084       .  S
C2632      C2633   1.409       .  A
C2632      H2639   1.081       .  S
C2633      C2634   1.413       .  A
C2634      H2640   1.083       .  S
C2641      C2642   1.407       .  A
C2641      C2646   1.406       .  A
C2642      C2643   1.407       .  A
C2642      H2651   1.082       .  S
C2643      C2644   1.407       .  A
C2643      H2652   1.083       .  S
C2644      C2650   1.410       .  A
C2644      C2645   1.411       .  A
C2645      C2647   1.397       .  A
C2645      C2646   1.395       .  A
C2646      H2653   1.081       .  S
C2647      C2648   1.388       .  A
C2647      H2654   1.084       .  S
C2648      C2649   1.407       .  A
C2648      H2655   1.082       .  S
C2649      C2650   1.412       .  A
C2650      H2656   1.081       .  S
C2657      C2658   1.403       .  A
C2657      C2662   1.406       .  A
C2658      C2659   1.400       .  A
C2658      H2667   1.083       .  S
C2659      C2660   1.404       .  A
C2659      H2668   1.084       .  S
C2660      C2666   1.404       .  A
C2660      C2661   1.413       .  A
C2661      C2663   1.402       .  A
C2661      C2662   1.401       .  A
C2662      H2669   1.084       .  S
C2663      C2664   1.396       .  A
C2663      H2670   1.084       .  S
C2664      C2665   1.404       .  A
C2664      H2671   1.083       .  S
C2665      C2666   1.406       .  A
C2666      H2672   1.084       .  S
C2673      C2674   1.404       .  A
C2673      C2678   1.407       .  A
C2674      C2675   1.401       .  A
C2674      H2683   1.083       .  S
C2675      C2676   1.404       .  A
C2675      H2684   1.084       .  S
C2676      C2682   1.405       .  A
C2676      C2677   1.413       .  A
C2677      C2679   1.402       .  A
C2677      C2678   1.401       .  A
C2678      H2685   1.083       .  S
C2679      C2680   1.395       .  A
C2679      H2686   1.084       .  S
C2680      C2681   1.404       .  A
C2680      H2687   1.083       .  S
C2681      C2682   1.406       .  A
C2682      H2688   1.082       .  S
C2689      C2690   1.411       .  A
C2689      C2694   1.408       .  A
C2690      C2691   1.418       .  A
C2690      H2699   1.081       .  S
C2691      C2692   1.413       .  A
C2691      H2700   1.083       .  S
C2692      C2698   1.430       .  A
C2692      C2693   1.412       .  A
C2693      C2695   1.393       .  A
C2693      C2694   1.400       .  A
C2694      H2701   1.085       .  S
C2695      C2696   1.385       .  A
C2695      H2702   1.084       .  S
C2696      C2697   1.412       .  A
C2696      H2703   1.084       .  S
C2697      C2698   1.421       .  A
C2698      H2704   1.082       .  S
C2705      C2706   1.406       .  A
C2705      C2710   1.407       .  A
C2706      C2707   1.398       .  A
C2706      H2715   1.082       .  S
C2707      C2708   1.402       .  A
C2707      H2716   1.083       .  S
C2708      C2714   1.405       .  A
C2708      C2709   1.413       .  A
C2709      C2711   1.402       .  A
C2709      C2710   1.403       .  A
C2710      H2717   1.083       .  S
C2711      C2712   1.397       .  A
C2711      H2718   1.083       .  S
C2712      C2713   1.406       .  A
C2712      H2719   1.083       .  S
C2713      C2714   1.405       .  A
C2714      H2720   1.084       .  S
C2721      C2722   1.401       .  A
C2721      C2726   1.402       .  A
C2722      C2723   1.395       .  A
C2722      H2731   1.084       .  S
C2723      C2724   1.402       .  A
C2723      H2732   1.083       .  S
C2724      C2730   1.400       .  A
C2724      C2725   1.415       .  A
C2725      C2727   1.404       .  A
C2725      C2726   1.403       .  A
C2726      H2733   1.084       .  S
C2727      C2728   1.399       .  A
C2727      H2734   1.083       .  S
C2728      C2729   1.401       .  A
C2728      H2735   1.083       .  S
C2729      C2730   1.402       .  A
C2730      H2736   1.085       .  S
C2737      C2738   1.409       .  A
C2737      C2742   1.408       .  A
C2738      C2739   1.392       .  A
C2738      H2747   1.082       .  S
C2739      C2740   1.398       .  A
C2739      H2748   1.084       .  S
C2740      C2746   1.400       .  A
C2740      C2741   1.412       .  A
C2741      C2743   1.403       .  A
C2741      C2742   1.408       .  A
C2742      H2749   1.083       .  S
C2743      C2744   1.401       .  A
C2743      H2750   1.084       .  S
C2744      C2745   1.408       .  A
C2744      H2751   1.081       .  S
C2745      C2746   1.407       .  A
C2746      H2752   1.082       .  S
C2753      C2754   1.403       .  A
C2753      C2758   1.403       .  A
C2754      C2755   1.400       .  A
C2754      H2763   1.083       .  S
C2755      C2756   1.405       .  A
C2755      H2764   1.083       .  S
C2756      C2762   1.405       .  A
C2756      C2757   1.413       .  A
C2757      C2759   1.401       .  A
C2757      C2758   1.401       .  A
C2758      H2765   1.085       .  S
C2759      C2760   1.395       .  A
C2759      H2766   1.084       .  S
C2760      C2761   1.404       .  A
C2760      H2767   1.083       .  S
C2761      C2762   1.408       .  A
C2762      H2768   1.084       .  S
C2769      C2770   1.413       .  A
C2769      C2774   1.424       .  A
C2770      C2771   1.384       .  A
C2770      H2779   1.083       .  S
C2771      C2772   1.392       .  A
C2771      H2780   1.084       .  S
C2772      C2778   1.398       .  A
C2772      C2773   1.411       .  A
C2773      C2775   1.416       .  A
C2773      C2774   1.432       .  A
C2774      H2781   1.082       .  S
C2775      C2776   1.422       .  A
C2775      H2782   1.083       .  S
C2776      C2777   1.411       .  A
C2776      H2783   1.081       .  S
C2777      C2778   1.409       .  A
C2778      H2784   1.085       .  S
C2785      C2786   1.409       .  A
C2785      C2790   1.412       .  A
C2786      C2787   1.397       .  A
C2786      H2795   1.081       .  S
C2787      C2788   1.399       .  A
C2787      H2796   1.084       .  S
C2788      C2794   1.408       .  A
C2788      C2789   1.414       .  A
C2789      C2791   1.406       .  A
C2789      C2790   1.415       .  A
C2790      H2797   1.083       .  S
C2791      C2792   1.405       .  A
C2791      H2798   1.083       .  S
C2792      C2793   1.404       .  A
C2792      H2799   1.083       .  S
C2793      C2794   1.405       .  A
C2794      H2800   1.085       .  S
C2801      C2802   1.407       .  A
C2801      C2806   1.414       .  A
C2802      C2803   1.394       .  A
C2802      H2811   1.082       .  S
C2803      C2804   1.399       .  A
C2803      H2812   1.084       .  S
C2804      C2810   1.403       .  A
C2804      C2805   1.413       .  A
C2805      C2807   1.410       .  A
C2805      C2806   1.418       .  A
C2806      H2813   1.084       .  S
C2807      C2808   1.410       .  A
C2807      H2814   1.083       .  S
C2808      C2809   1.405       .  A
C2808      H2815   1.083       .  S
C2809      C2810   1.403       .  A
C2810      H2816   1.081       .  S
C2817      C2818   1.410       .  A
C2817      C2822   1.411       .  A
C2818      C2819   1.397       .  A
C2818      H2827   1.080       .  S
C2819      C2820   1.399       .  A
C2819      H2828   1.084       .  S
C2820      C2826   1.406       .  A
C2820      C2821   1.414       .  A
C2821      C2823   1.405       .  A
C2821      C2822   1.411       .  A
C2822      H2829   1.083       .  S
C2823      C2824   1.401       .  A
C2823      H2830   1.084       .  S
C2824      C2825   1.403       .  A
C2824      H2831   1.083       .  S
C2825      C2826   1.403       .  A
C2826      H2832   1.085       .  S
C2833      C2834   1.406       .  A
C2833      C2838   1.407       .  A
C2834      C2835   1.398   1_565  A
C2834      H2843   1.082       .  S
C2835      C2836   1.402       .  A
C2835      H2844   1.084       .  S
C2836      C2842   1.405       .  A
C2836      C2837   1.413       .  A
C2837      C2839   1.402       .  A
C2837      C2838   1.405   1_545  A
C2838      H2845   1.084       .  S
C2839      C2840   1.398       .  A
C2839      H2846   1.084       .  S
C2840      C2841   1.405       .  A
C2840      H2847   1.083       .  S
C2841      C2842   1.407       .  A
C2842      H2848   1.084       .  S
C2849      C2850   1.404       .  A
C2849      C2854   1.410       .  A
C2850      C2851   1.399   1_556  A
C2850      H2859   1.083       .  S
C2851      C2852   1.403       .  A
C2851      H2860   1.084       .  S
C2852      C2858   1.406       .  A
C2852      C2853   1.412       .  A
C2853      C2855   1.405       .  A
C2853      C2854   1.409   1_554  A
C2854      H2861   1.084       .  S
C2855      C2856   1.402       .  A
C2855      H2862   1.083       .  S
C2856      C2857   1.406       .  A
C2856      H2863   1.082       .  S
C2857      C2858   1.410       .  A
C2858      H2864   1.083       .  S
C2865      C2866   1.409       .  A
C2865      C2870   1.417       .  A
C2866      C2867   1.395       .  A
C2866      H2875   1.081       .  S
C2867      C2868   1.399       .  A
C2867      H2876   1.084       .  S
C2868      C2874   1.405       .  A
C2868      C2869   1.413       .  A
C2869      C2871   1.410       .  A
C2869      C2870   1.421       .  A
C2870      H2877   1.083       .  S
C2871      C2872   1.411       .  A
C2871      H2878   1.083       .  S
C2872      C2873   1.405       .  A
C2872      H2879   1.083       .  S
C2873      C2874   1.405       .  A
C2874      H2880   1.083       .  S
C2881      C2882   1.403       .  A
C2881      C2886   1.407       .  A
C2882      C2883   1.404       .  A
C2882      H2891   1.083       .  S
C2883      C2884   1.406       .  A
C2883      H2892   1.084       .  S
C2884      C2890   1.414       .  A
C2884      C2885   1.413       .  A
C2885      C2887   1.401       .  A
C2885      C2886   1.410       .  A
C2886      H2893   1.085       .  S
C2887      C2888   1.400       .  A
C2887      H2894   1.084       .  S
C2888      C2889   1.410       .  A
C2888      H2895   1.081       .  S
C2889      C2890   1.414       .  A
C2890      H2896   1.083       .  S
C2897      C2898   1.406       .  A
C2897      C2902   1.408       .  A
C2898      C2899   1.402       .  A
C2898      H2907   1.083       .  S
C2899      C2900   1.404       .  A
C2899      H2908   1.084       .  S
C2900      C2906   1.411       .  A
C2900      C2901   1.414       .  A
C2901      C2903   1.402       .  A
C2901      C2902   1.408       .  A
C2902      H2909   1.084       .  S
C2903      C2904   1.399       .  A
C2903      H2910   1.084       .  S
C2904      C2905   1.406       .  A
C2904      H2911   1.083       .  S
C2905      C2906   1.409       .  A
C2906      H2912   1.084       .  S
C2913      C2914   1.406       .  A
C2913      C2918   1.408       .  A
C2914      C2915   1.405       .  A
C2914      H2923   1.083       .  S
C2915      C2916   1.406   1_565  A
C2915      H2924   1.083   1_565  S
C2916      C2922   1.413       .  A
C2916      C2917   1.413       .  A
C2917      C2919   1.402       .  A
C2917      C2918   1.408   1_545  A
C2918      H2925   1.084       .  S
C2919      C2920   1.398       .  A
C2919      H2926   1.084       .  S
C2920      C2921   1.406       .  A
C2920      H2927   1.082       .  S
C2921      C2922   1.412       .  A
C2922      H2928   1.084       .  S
C2929      C2930   1.410       .  A
C2929      C2934   1.415       .  A
C2930      C2931   1.399       .  A
C2930      H2939   1.080       .  S
C2931      C2932   1.401       .  A
C2931      H2940   1.084       .  S
C2932      C2938   1.410       .  A
C2932      C2933   1.413       .  A
C2933      C2935   1.407       .  A
C2933      C2934   1.416       .  A
C2934      H2941   1.082       .  S
C2935      C2936   1.405       .  A
C2935      H2942   1.083       .  S
C2936      C2937   1.404       .  A
C2936      H2943   1.083       .  S
C2937      C2938   1.406       .  A
C2938      H2944   1.083       .  S
C2945      C2946   1.410       .  A
C2945      C2950   1.410       .  A
C2946      C2947   1.398   1_556  A
C2946      H2955   1.081       .  S
C2947      C2948   1.399       .  A
C2947      H2956   1.084       .  S
C2948      C2954   1.411       .  A
C2948      C2949   1.415       .  A
C2949      C2951   1.403       .  A
C2949      C2950   1.413   1_554  A
C2950      H2957   1.083       .  S
C2951      C2952   1.401       .  A
C2951      H2958   1.083       .  S
C2952      C2953   1.406       .  A
C2952      H2959   1.083       .  S
C2953      C2954   1.405       .  A
C2954      H2960   1.084       .  S
C2961      C2962   1.407       .  A
C2961      C2966   1.407       .  A
C2962      C2963   1.400       .  A
C2962      H2971   1.083       .  S
C2963      C2964   1.402       .  A
C2963      H2972   1.083       .  S
C2964      C2970   1.411       .  A
C2964      C2965   1.415       .  A
C2965      C2967   1.402       .  A
C2965      C2966   1.411       .  A
C2966      H2973   1.084       .  S
C2967      C2968   1.400       .  A
C2967      H2974   1.083       .  S
C2968      C2969   1.408       .  A
C2968      H2975   1.082       .  S
C2969      C2970   1.408       .  A
C2970      H2976   1.083       .  S
C2977      C2978   1.407       .  A
C2977      C2982   1.414       .  A
C2978      C2979   1.397       .  A
C2978      H2987   1.082       .  S
C2979      C2980   1.401       .  A
C2979      H2988   1.084       .  S
C2980      C2986   1.405       .  A
C2980      C2981   1.412       .  A
C2981      C2983   1.409       .  A
C2981      C2982   1.417       .  A
C2982      H2989   1.083       .  S
C2983      C2984   1.408       .  A
C2983      H2990   1.083       .  S
C2984      C2985   1.404       .  A
C2984      H2991   1.083       .  S
C2985      C2986   1.408       .  A
C2986      H2992   1.085       .  S
C2993      C2994   1.410       .  A
C2993      C2998   1.416       .  A
C2994      C2995   1.402       .  A
C2994      H3003   1.081       .  S
C2995      C2996   1.402       .  A
C2995      H3004   1.083       .  S
C2996      C3002   1.414       .  A
C2996      C2997   1.413       .  A
C2997      C2999   1.408       .  A
C2997      C2998   1.419       .  A
C2998      H3005   1.083       .  S
C2999      C3000   1.407       .  A
C2999      H3006   1.083       .  S
C3000      C3001   1.405       .  A
C3000      H3007   1.083       .  S
C3001      C3002   1.408       .  A
C3002      H3008   1.084       .  S
C3009      C3010   1.410       .  A
C3009      C3014   1.415       .  A
C3010      C3011   1.399       .  A
C3010      H3019   1.080       .  S
C3011      C3012   1.400       .  A
C3011      H3020   1.084       .  S
C3012      C3018   1.411       .  A
C3012      C3013   1.413       .  A
C3013      C3015   1.407       .  A
C3013      C3014   1.418       .  A
C3014      H3021   1.083       .  S
C3015      C3016   1.406       .  A
C3015      H3022   1.083       .  S
C3016      C3017   1.406       .  A
C3016      H3023   1.083       .  S
C3017      C3018   1.407       .  A
C3018      H3024   1.085       .  S
C3025      C3026   1.408       .  A
C3025      C3030   1.414       .  A
C3026      C3027   1.399       .  A
C3026      H3035   1.082       .  S
C3027      C3028   1.402       .  A
C3027      H3036   1.084       .  S
C3028      C3034   1.410       .  A
C3028      C3029   1.414       .  A
C3029      C3031   1.408       .  A
C3029      C3030   1.418       .  A
C3030      H3037   1.083       .  S
C3031      C3032   1.407       .  A
C3031      H3038   1.083       .  S
C3032      C3033   1.405       .  A
C3032      H3039   1.083       .  S
C3033      C3034   1.407       .  A
C3034      H3040   1.082       .  S
C3041      C3042   1.405       .  A
C3041      C3046   1.409       .  A
C3042      C3043   1.402       .  A
C3042      H3051   1.083       .  S
C3043      C3044   1.405       .  A
C3043      H3052   1.083       .  S
C3044      C3050   1.409       .  A
C3044      C3045   1.412       .  A
C3045      C3047   1.403       .  A
C3045      C3046   1.408       .  A
C3046      H3053   1.084       .  S
C3047      C3048   1.400       .  A
C3047      H3054   1.084       .  S
C3048      C3049   1.406       .  A
C3048      H3055   1.082       .  S
C3049      C3050   1.411       .  A
C3050      H3056   1.083       .  S
C3057      C3058   1.406       .  A
C3057      C3062   1.406       .  A
C3058      C3059   1.400       .  A
C3058      H3067   1.083       .  S
C3059      C3060   1.402       .  A
C3059      H3068   1.083       .  S
C3060      C3066   1.413       .  A
C3060      C3061   1.416       .  A
C3061      C3063   1.401       .  A
C3061      C3062   1.412       .  A
C3062      H3069   1.084       .  S
C3063      C3064   1.400       .  A
C3063      H3070   1.083       .  S
C3064      C3065   1.409       .  A
C3064      H3071   1.082       .  S
C3065      C3066   1.409       .  A
C3066      H3072   1.083       .  S
C3073      C3074   1.404       .  A
C3073      C3078   1.407       .  A
C3074      C3075   1.406       .  A
C3074      H3083   1.083       .  S
C3075      C3076   1.407       .  A
C3075      H3084   1.083       .  S
C3076      C3082   1.416       .  A
C3076      C3077   1.413       .  A
C3077      C3079   1.402       .  A
C3077      C3078   1.409       .  A
C3078      H3085   1.083       .  S
C3079      C3080   1.400       .  A
C3079      H3086   1.083       .  S
C3080      C3081   1.407       .  A
C3080      H3087   1.082       .  S
C3081      C3082   1.413       .  A
C3082      H3088   1.083       .  S
C3089      C3090   1.406       .  A
C3089      C3094   1.408       .  A
C3090      C3091   1.403       .  A
C3090      H3099   1.083       .  S
C3091      C3092   1.405       .  A
C3091      H3100   1.083       .  S
C3092      C3098   1.411       .  A
C3092      C3093   1.413       .  A
C3093      C3095   1.402       .  A
C3093      C3094   1.407       .  A
C3094      H3101   1.084       .  S
C3095      C3096   1.398       .  A
C3095      H3102   1.084       .  S
C3096      C3097   1.405       .  A
C3096      H3103   1.083       .  S
C3097      C3098   1.410       .  A
C3098      H3104   1.084       .  S
C3105      C3106   1.406       .  A
C3105      C3110   1.411       .  A
C3106      C3107   1.401       .  A
C3106      H3115   1.083       .  S
C3107      C3108   1.404       .  A
C3107      H3116   1.083       .  S
C3108      C3114   1.409       .  A
C3108      C3109   1.413       .  A
C3109      C3111   1.405       .  A
C3109      C3110   1.410       .  A
C3110      H3117   1.083       .  S
C3111      C3112   1.403       .  A
C3111      H3118   1.083       .  S
C3112      C3113   1.405       .  A
C3112      H3119   1.083       .  S
C3113      C3114   1.410       .  A
C3114      H3120   1.084       .  S
C3121      C3122   1.409       .  A
C3121      C3126   1.415       .  A
C3122      C3123   1.399       .  A
C3122      H3131   1.081       .  S
C3123      C3124   1.401       .  A
C3123      H3132   1.084       .  S
C3124      C3130   1.409       .  A
C3124      C3125   1.413       .  A
C3125      C3127   1.408       .  A
C3125      C3126   1.416       .  A
C3126      H3133   1.083       .  S
C3127      C3128   1.406       .  A
C3127      H3134   1.083       .  S
C3128      C3129   1.404       .  A
C3128      H3135   1.083       .  S
C3129      C3130   1.406       .  A
C3130      H3136   1.085       .  S
C3137      C3138   1.405       .  A
C3137      C3142   1.410       .  A
C3138      C3139   1.402       .  A
C3138      H3147   1.083       .  S
C3139      C3140   1.405       .  A
C3139      H3148   1.084       .  S
C3140      C3146   1.411       .  A
C3140      C3141   1.413       .  A
C3141      C3143   1.404       .  A
C3141      C3142   1.411       .  A
C3142      H3149   1.084       .  S
C3143      C3144   1.403       .  A
C3143      H3150   1.084       .  S
C3144      C3145   1.406       .  A
C3144      H3151   1.082       .  S
C3145      C3146   1.412       .  A
C3146      H3152   1.084       .  S
C3153      C3154   1.405       .  A
C3153      C3158   1.410       .  A
C3154      C3155   1.402       .  A
C3154      H3163   1.083       .  S
C3155      C3156   1.405       .  A
C3155      H3164   1.083       .  S
C3156      C3162   1.409       .  A
C3156      C3157   1.412       .  A
C3157      C3159   1.404       .  A
C3157      C3158   1.408       .  A
C3158      H3165   1.083       .  S
C3159      C3160   1.401       .  A
C3159      H3166   1.083       .  S
C3160      C3161   1.405       .  A
C3160      H3167   1.083       .  S
C3161      C3162   1.410       .  A
C3162      H3168   1.084       .  S
C3169      C3170   1.407       .  A
C3169      C3174   1.413       .  A
C3170      C3171   1.398       .  A
C3170      H3179   1.082       .  S
C3171      C3172   1.401       .  A
C3171      H3180   1.085       .  S
C3172      C3178   1.406       .  A
C3172      C3173   1.413       .  A
C3173      C3175   1.408       .  A
C3173      C3174   1.415       .  A
C3174      H3181   1.084       .  S
C3175      C3176   1.407       .  A
C3175      H3182   1.084       .  S
C3176      C3177   1.403       .  A
C3176      H3183   1.083       .  S
C3177      C3178   1.407       .  A
C3178      H3184   1.086       .  S
C3185      C3186   1.410       .  A
C3185      C3190   1.417       .  A
C3186      C3187   1.398       .  A
C3186      H3195   1.080       .  S
C3187      C3188   1.399       .  A
C3187      H3196   1.084       .  S
C3188      C3194   1.409       .  A
C3188      C3189   1.413       .  A
C3189      C3191   1.409       .  A
C3189      C3190   1.421       .  A
C3190      H3197   1.083       .  S
C3191      C3192   1.409       .  A
C3191      H3198   1.083       .  S
C3192      C3193   1.405       .  A
C3192      H3199   1.083       .  S
C3193      C3194   1.406       .  A
C3194      H3200   1.083       .  S
C3201      C3202   1.407       .  A
C3201      C3206   1.412       .  A
C3202      C3203   1.400   1_655  A
C3202      H3211   1.082       .  S
C3203      C3204   1.402       .  A
C3203      H3212   1.084       .  S
C3204      C3210   1.409       .  A
C3204      C3205   1.413       .  A
C3205      C3207   1.405       .  A
C3205      C3206   1.411   1_455  A
C3206      H3213   1.083       .  S
C3207      C3208   1.402       .  A
C3207      H3214   1.083       .  S
C3208      C3209   1.405       .  A
C3208      H3215   1.083       .  S
C3209      C3210   1.408       .  A
C3210      H3216   1.084       .  S
C3217      C3218   1.407       .  A
C3217      C3222   1.412       .  A
C3218      C3219   1.396       .  A
C3218      H3227   1.082       .  S
C3219      C3220   1.400       .  A
C3219      H3228   1.084       .  S
C3220      C3226   1.405       .  A
C3220      C3221   1.414       .  A
C3221      C3223   1.408       .  A
C3221      C3222   1.415       .  A
C3222      H3229   1.084       .  S
C3223      C3224   1.407       .  A
C3223      H3230   1.083       .  S
C3224      C3225   1.403       .  A
C3224      H3231   1.083       .  S
C3225      C3226   1.405       .  A
C3226      H3232   1.085       .  S
C3233      C3234   1.405       .  A
C3233      C3238   1.410       .  A
C3234      C3235   1.403       .  A
C3234      H3243   1.082       .  S
C3235      C3236   1.405   1_565  A
C3235      H3244   1.083   1_565  S
C3236      C3242   1.410       .  A
C3236      C3237   1.413       .  A
C3237      C3239   1.404       .  A
C3237      C3238   1.406   1_545  A
C3238      H3245   1.083       .  S
C3239      C3240   1.400       .  A
C3239      H3246   1.083       .  S
C3240      C3241   1.404       .  A
C3240      H3247   1.083       .  S
C3241      C3242   1.408       .  A
C3242      H3248   1.084       .  S
C3249      C3250   1.406       .  A
C3249      C3254   1.415       .  A
C3250      C3251   1.397       .  A
C3250      H3259   1.083       .  S
C3251      C3252   1.401       .  A
C3251      H3260   1.084       .  S
C3252      C3258   1.408       .  A
C3252      C3253   1.413       .  A
C3253      C3255   1.410       .  A
C3253      C3254   1.421       .  A
C3254      H3261   1.083       .  S
C3255      C3256   1.411       .  A
C3255      H3262   1.083       .  S
C3256      C3257   1.405       .  A
C3256      H3263   1.083       .  S
C3257      C3258   1.408       .  A
C3258      H3264   1.085       .  S
C3265      C3266   1.405       .  A
C3265      C3270   1.411       .  A
C3266      C3267   1.401       .  A
C3266      H3275   1.082       .  S
C3267      C3268   1.404       .  A
C3267      H3276   1.084       .  S
C3268      C3274   1.407       .  A
C3268      C3269   1.412       .  A
C3269      C3271   1.404       .  A
C3269      C3270   1.408       .  A
C3270      H3277   1.083       .  S
C3271      C3272   1.401       .  A
C3271      H3278   1.083       .  S
C3272      C3273   1.405       .  A
C3272      H3279   1.083       .  S
C3273      C3274   1.409       .  A
C3274      H3280   1.083       .  S
C3281      C3282   1.409       .  A
C3281      C3286   1.414       .  A
C3282      C3283   1.399       .  A
C3282      H3291   1.081       .  S
C3283      C3284   1.401       .  A
C3283      H3292   1.084       .  S
C3284      C3290   1.408       .  A
C3284      C3285   1.413       .  A
C3285      C3287   1.407       .  A
C3285      C3286   1.415       .  A
C3286      H3293   1.083       .  S
C3287      C3288   1.405       .  A
C3287      H3294   1.083       .  S
C3288      C3289   1.404       .  A
C3288      H3295   1.083       .  S
C3289      C3290   1.407       .  A
C3290      H3296   1.084       .  S
C3297      C3298   1.406       .  A
C3297      C3302   1.411       .  A
C3298      C3299   1.404       .  A
C3298      H3307   1.083       .  S
C3299      C3300   1.406       .  A
C3299      H3308   1.083       .  S
C3300      C3306   1.412       .  A
C3300      C3301   1.412       .  A
C3301      C3303   1.405       .  A
C3301      C3302   1.410       .  A
C3302      H3309   1.083       .  S
C3303      C3304   1.402       .  A
C3303      H3310   1.083       .  S
C3304      C3305   1.405       .  A
C3304      H3311   1.083       .  S
C3305      C3306   1.412       .  A
C3306      H3312   1.084       .  S
C3313      C3314   1.409       .  A
C3313      C3318   1.412       .  A
C3314      C3315   1.399       .  A
C3314      H3323   1.081       .  S
C3315      C3316   1.401       .  A
C3315      H3324   1.084       .  S
C3316      C3322   1.410       .  A
C3316      C3317   1.414       .  A
C3317      C3319   1.406       .  A
C3317      C3318   1.414       .  A
C3318      H3325   1.083       .  S
C3319      C3320   1.404       .  A
C3319      H3326   1.083       .  S
C3320      C3321   1.403       .  A
C3320      H3327   1.083       .  S
C3321      C3322   1.405       .  A
C3322      H3328   1.085       .  S
C3329      C3330   1.406       .  A
C3329      C3334   1.407       .  A
C3330      C3331   1.399   1_565  A
C3330      H3339   1.083       .  S
C3331      C3332   1.402       .  A
C3331      H3340   1.083       .  S
C3332      C3338   1.410       .  A
C3332      C3333   1.415       .  A
C3333      C3335   1.402       .  A
C3333      C3334   1.411   1_545  A
C3334      H3341   1.084       .  S
C3335      C3336   1.400       .  A
C3335      H3342   1.083       .  S
C3336      C3337   1.407       .  A
C3336      H3343   1.082       .  S
C3337      C3338   1.408       .  A
C3338      H3344   1.083       .  S
C3345      C3346   1.407       .  A
C3345      C3350   1.407       .  A
C3346      C3347   1.400   1_655  A
C3346      H3355   1.083       .  S
C3347      C3348   1.402       .  A
C3347      H3356   1.083       .  S
C3348      C3354   1.413       .  A
C3348      C3349   1.415       .  A
C3349      C3351   1.400       .  A
C3349      C3350   1.412   1_455  A
C3350      H3357   1.084       .  S
C3351      C3352   1.399       .  A
C3351      H3358   1.083       .  S
C3352      C3353   1.410       .  A
C3352      H3359   1.082       .  S
C3353      C3354   1.409       .  A
C3354      H3360   1.083       .  S
