geometry optimzed in LAMMPS
_audit_creation_date              2020-12-01 
_audit_creation_method            'lammps2cif' 
_symmetry_space_group_name_H-M    'P1' 
_symmetry_Int_Tables_number       1 
_symmetry_cell_setting            triclinic 
loop_ 
_symmetry_equiv_pos_as_xyz 
  x,y,z 
_cell_length_a                    68.1952805 
_cell_length_b                    68.21611983879419 
_cell_length_c                    68.19693797956596 
_cell_angle_alpha                 89.98099181288089 
_cell_angle_beta                  90.03521181392333 
_cell_angle_gamma                 90.00784105679789 
loop_ 
_atom_site_label 
_atom_site_type_symbol 
_atom_site_fract_x 
_atom_site_fract_y 
_atom_site_fract_z 
_atom_site_charge 
C1          C  0.68011468  0.68585785  0.84459365     0.03100
C2          C  0.66306920  0.69288831  0.83536590    -0.13100
C3          C  0.65564736  0.68394227  0.81833506     0.00600
C4          C  0.66533847  0.66747214  0.81066661    -0.11600
C5          C  0.68221514  0.65992732  0.81982357     0.03100
C6          C  0.68938248  0.66920953  0.83678517    -0.11000
H7          H  0.65568465  0.70562749  0.84124357     0.08700
H8          H  0.65982729  0.66067325  0.79742997     0.06200
H9          H  0.70250327  0.66363128  0.84370770     0.06000
C10         C  0.65314873  0.85334836  0.64039522     0.03100
C11         C  0.66267085  0.84477715  0.62425981    -0.13100
C12         C  0.68035266  0.85241755  0.61698861     0.00600
C13         C  0.68835717  0.86923710  0.62576354    -0.11600
C14         C  0.67894960  0.87841039  0.64163561     0.03100
C15         C  0.66135519  0.87031058  0.64880989    -0.11000
H16         H  0.65647317  0.83188920  0.61742482     0.08700
H17         H  0.70204418  0.87509028  0.62028480     0.06200
H18         H  0.65418276  0.87710740  0.66119118     0.06000
C19         C  0.85822471  0.67914791  0.61565522     0.03100
C20         C  0.84804212  0.66490267  0.62651779    -0.13100
C21         C  0.85491702  0.65881224  0.64502728     0.00600
C22         C  0.87187636  0.66763834  0.65276359    -0.11600
C23         C  0.88263209  0.68138514  0.64183591     0.03100
C24         C  0.87606707  0.68631747  0.62296627    -0.11000
H25         H  0.83455997  0.65887249  0.62074186     0.08700
H26         H  0.87625323  0.66431046  0.66764389     0.06200
H27         H  0.88462068  0.69626567  0.61404717     0.06000
C28         C  0.85381699  0.86041415  0.83843929     0.03100
C29         C  0.84422907  0.87608995  0.82911623    -0.13100
C30         C  0.85172046  0.88441742  0.81181905     0.00600
C31         C  0.86924901  0.87697084  0.80393433    -0.11600
C32         C  0.87908810  0.86116796  0.81285844     0.03100
C33         C  0.87128443  0.85314209  0.83020954    -0.11000
H34         H  0.83067587  0.88166835  0.83518557     0.08700
H35         H  0.87505223  0.88330232  0.79060034     0.06200
H36         H  0.87864190  0.84093512  0.83716460     0.06000
O37         O  0.74474960  0.77278948  0.96044608    -0.74500
O38         O  0.77484259  0.79896582  0.00000300    -0.74500
O39         O  0.77365156  0.79996168  0.96045761    -0.74600
O40         O  0.74567850  0.77169851  0.00006944    -0.74600
O41         O  0.76851701  0.74828657  0.99977381    -0.74500
O42         O  0.79549331  0.77571990  0.95862116    -0.74500
O43         O  0.79743563  0.77538166  0.99851739    -0.74500
O44         O  0.76654234  0.74843107  0.96003802    -0.74600
Ni45       Ni  0.75894504  0.78669104  0.98031922     1.25400
Ni46       Ni  0.78281819  0.76111209  0.97918428     1.25400
C47         C  0.75062363  0.75623683  0.95378844     0.87700
C48         C  0.79115339  0.79155850  0.00570072     0.87600
C49         C  0.78904490  0.79241830  0.95281395     0.87700
C50         C  0.75246319  0.75538731  0.00646486     0.87800
O51         O  0.99808946  0.74729652  0.72615762    -0.74500
O52         O  0.03812670  0.77570842  0.75365228    -0.74500
O53         O  0.99828160  0.77607327  0.75380160    -0.74600
O54         O  0.03769914  0.74706564  0.72634215    -0.74600
O55         O  0.03858872  0.77021096  0.70327384    -0.74500
O56         O  0.99759783  0.79813499  0.72966831    -0.74500
O57         O  0.03732641  0.79890358  0.73060272    -0.74500
O58         O  0.99890286  0.76961141  0.70228860    -0.74600
Ni59       Ni  0.01800416  0.76074079  0.74085615     1.25400
Ni60       Ni  0.01810438  0.78501757  0.71562515     1.25400
C61         C  0.99206768  0.75369701  0.70953032     0.87700
C62         C  0.04437930  0.79195501  0.74655828     0.87600
C63         C  0.99129529  0.79177209  0.74618366     0.87700
C64         C  0.04484508  0.75398152  0.71042029     0.87800
O65         O  0.75972375  0.00091429  0.69806491    -0.74500
O66         O  0.78954735  0.03995784  0.72549406    -0.74500
O67         O  0.78815488  0.00022463  0.72605025    -0.74600
O68         O  0.76129003  0.04068111  0.69771718    -0.74600
O69         O  0.73854574  0.04179196  0.72116130    -0.74500
O70         O  0.76491226  0.00085543  0.74904718    -0.74500
O71         O  0.76695244  0.04048197  0.74912495    -0.74500
O72         O  0.73684064  0.00215397  0.72137035    -0.74600
Ni73       Ni  0.77549481  0.02039623  0.71098568     1.25400
Ni74       Ni  0.75100009  0.02141242  0.73598630     1.25400
C75         C  0.74344035  0.99495629  0.70533635     0.87700
C76         C  0.78321105  0.04653388  0.74190577     0.87600
C77         C  0.78085907  0.99377576  0.74213340     0.87700
C78         C  0.74549767  0.04795034  0.70482294     0.87800
C79         C  0.67864475  0.65925033  0.13934861     0.03100
C80         C  0.66106696  0.66756183  0.14620910    -0.13100
C81         C  0.65252167  0.68375630  0.13672275     0.00600
C82         C  0.66161271  0.69129054  0.11979828    -0.11600
C83         C  0.67932980  0.68342755  0.11281762     0.03100
C84         C  0.68762094  0.66730600  0.12261827    -0.11000
H85         H  0.65431981  0.66171125  0.15931339     0.08700
H86         H  0.65522726  0.70377746  0.11237828     0.06200
H87         H  0.70135888  0.66129392  0.11743904     0.06000
C88         C  0.65829361  0.19048667  0.64073433     0.03100
C89         C  0.66607615  0.17288253  0.64809576    -0.13100
C90         C  0.68101371  0.16279218  0.63803132     0.00600
C91         C  0.68829305  0.17086919  0.62049292    -0.11600
C92         C  0.68133087  0.18891525  0.61341743     0.03100
C93         C  0.66608982  0.19838782  0.62341983    -0.11000
H94         H  0.66088351  0.16742074  0.66205625     0.08700
H95         H  0.69941581  0.16316267  0.61222135     0.06200
H96         H  0.66049172  0.21215588  0.61785613     0.06000
C97         C  0.15606012  0.67990983  0.64774353     0.03100
C98         C  0.16486999  0.66389736  0.65722185    -0.13100
C99         C  0.18091795  0.65413261  0.64879377     0.00600
C100        C  0.18856405  0.66088047  0.63085639    -0.11600
C101        C  0.18007764  0.67702388  0.62125988     0.03100
C102        C  0.16341094  0.68585991  0.62945820    -0.11000
H103        H  0.15985460  0.65949034  0.67162136     0.08700
H104        H  0.20140087  0.65389179  0.62466174     0.06200
H105        H  0.15631302  0.69769507  0.62161183     0.06000
C106        C  0.85801330  0.65819422  0.31515573     0.03100
C107        C  0.87595491  0.66533623  0.30810059    -0.13100
C108        C  0.88427979  0.68266003  0.31558739     0.00600
C109        C  0.87488498  0.69207510  0.33139184    -0.11600
C110        C  0.85746072  0.68451377  0.33941128     0.03100
C111        C  0.84891261  0.66786579  0.33083783    -0.11000
H112        H  0.88348414  0.65719276  0.29677512     0.08700
H113        H  0.88103472  0.70531928  0.33752070     0.06200
H114        H  0.83484967  0.66271457  0.33610478     0.06000
O115        O  0.00122118  0.77339919  0.20997547    -0.74500
O116        O  0.04538562  0.74754400  0.23288206    -0.74500
O117        O  0.00596332  0.74357955  0.23541715    -0.74600
O118        O  0.04066700  0.77765189  0.20740412    -0.74600
O119        O  0.04022326  0.79851748  0.23258325    -0.74500
O120        O  0.00540607  0.76466121  0.26038017    -0.74500
O121        O  0.04495189  0.76867007  0.25783591    -0.74500
O122        O  0.00074830  0.79470790  0.23476128    -0.74600
Ni123      Ni  0.02334042  0.75979476  0.22053187     1.25400
Ni124      Ni  0.02277957  0.78238244  0.24728912     1.25400
C125        C  0.99367936  0.78828640  0.21855768     0.87700
C126        C  0.05254880  0.75391381  0.24903542     0.87600
C127        C  0.99973393  0.74863735  0.25240074     0.87700
C128        C  0.04643407  0.79354763  0.21559380     0.87800
C129        C  0.85938559  0.85556132  0.11973967     0.03100
C130        C  0.84978336  0.87148668  0.12866055    -0.13100
C131        C  0.85628430  0.87903646  0.14666652     0.00600
C132        C  0.87228597  0.87018164  0.15606492    -0.11600
C133        C  0.88232167  0.85442747  0.14741802     0.03100
C134        C  0.87592479  0.84743225  0.12907860    -0.11000
H135        H  0.83708038  0.87796627  0.12170074     0.08700
H136        H  0.87657229  0.87530116  0.17046899     0.06200
H137        H  0.88395637  0.83575580  0.12196403     0.06000
C138        C  0.68108143  0.87659636  0.31828741     0.03100
C139        C  0.66458509  0.86831235  0.30916818    -0.13100
C140        C  0.65460541  0.85243201  0.31771129     0.00600
C141        C  0.66144443  0.84480933  0.33562066    -0.11600
C142        C  0.67822529  0.85256233  0.34472806     0.03100
C143        C  0.68779306  0.86858320  0.33602527    -0.11000
H144        H  0.65993489  0.87381844  0.29501832     0.08700
H145        H  0.65358995  0.83292142  0.34261176     0.06200
H146        H  0.70072424  0.87467393  0.34292893     0.06000
O147        O  0.76796965  0.03624568  0.20747970    -0.74500
O148        O  0.74234871  0.99523645  0.23596894    -0.74500
O149        O  0.74123855  0.03472315  0.23680051    -0.74600
O150        O  0.76916311  0.99631648  0.20675069    -0.74600
O151        O  0.79347524  0.99694167  0.22865260    -0.74500
O152        O  0.76561810  0.03498039  0.25862614    -0.74500
O153        O  0.76673131  0.99524032  0.25779117    -0.74500
O154        O  0.79230582  0.03637407  0.22935116    -0.74600
Ni155      Ni  0.75433477  0.01562517  0.22092605     1.25400
Ni156      Ni  0.78036189  0.01589747  0.24440919     1.25400
C157        C  0.78433375  0.04308564  0.21371607     0.87700
C158        C  0.75034225  0.98845674  0.25154720     0.87600
C159        C  0.74892610  0.04119613  0.25266901     0.87700
C160        C  0.78590022  0.99027103  0.21284445     0.87800
C161        C  0.38093030  0.85576063  0.63989645     0.03100
C162        C  0.37386066  0.87353793  0.64762150    -0.13100
C163        C  0.35828822  0.88363460  0.63856539     0.00600
C164        C  0.34981134  0.87560158  0.62151984    -0.11600
C165        C  0.35617227  0.85750937  0.61397411     0.03100
C166        C  0.37197790  0.84797435  0.62307180    -0.11000
H167        H  0.37992026  0.87907233  0.66120477     0.08700
H168        H  0.33813343  0.88339074  0.61411406     0.06200
H169        H  0.37704739  0.83411086  0.61731232     0.06000
O170        O  0.25044883  0.00268816  0.73040610    -0.74500
O171        O  0.27756370  0.04340842  0.70289528    -0.74500
O172        O  0.27825209  0.00370482  0.70208346    -0.74600
O173        O  0.24963429  0.04223957  0.73120699    -0.74600
O174        O  0.27280909  0.04192658  0.75429953    -0.74500
O175        O  0.30210651  0.00414412  0.72444526    -0.74500
O176        O  0.30046435  0.04382222  0.72628395    -0.74500
O177        O  0.27425995  0.00203564  0.75283120    -0.74600
Ni178      Ni  0.26316573  0.02300418  0.71581973     1.25400
Ni179      Ni  0.28824041  0.02294185  0.74029414     1.25400
C180        C  0.25792548  0.99560609  0.74611788     0.87700
C181        C  0.29329476  0.05053849  0.71029585     0.87600
C182        C  0.29486725  0.99756503  0.70837734     0.87700
C183        C  0.25655173  0.04852998  0.74749905     0.87800
C184        C  0.18440724  0.88550809  0.81158612     0.03100
C185        C  0.16859089  0.87660503  0.80178709    -0.13100
C186        C  0.15924607  0.86003033  0.80976673     0.00600
C187        C  0.16613203  0.85225221  0.82759557    -0.11600
C188        C  0.18185556  0.86095576  0.83767722     0.03100
C189        C  0.19045949  0.87791759  0.82975821    -0.11000
H190        H  0.16401878  0.88210386  0.78760525     0.08700
H191        H  0.15928555  0.83924493  0.83353853     0.06200
H192        H  0.20202841  0.88530287  0.83772785     0.06000
C193        C  0.35372238  0.68467960  0.84789823     0.03100
C194        C  0.34611807  0.66749138  0.83948124    -0.13100
C195        C  0.35501370  0.65867245  0.82308841     0.00600
C196        C  0.37184284  0.66757222  0.81505429    -0.11600
C197        C  0.37956499  0.68497831  0.82303880     0.03100
C198        C  0.37050784  0.69323143  0.83960948    -0.11000
H199        H  0.33303782  0.66107455  0.84569394     0.08700
H200        H  0.37887602  0.66111510  0.80241514     0.06200
H201        H  0.37635479  0.70658335  0.84587691     0.06000
O202        O  0.25996602  0.79983320  0.96027136    -0.74500
O203        O  0.28717560  0.77199982  0.00062133    -0.74500
O204        O  0.28773239  0.77147841  0.96125369    -0.74600
O205        O  0.25955490  0.80030124  0.00004426    -0.74600
O206        O  0.23641817  0.77719101  0.00072495    -0.74500
O207        O  0.26391527  0.74906926  0.96061362    -0.74500
O208        O  0.26389262  0.74901264  0.00039967    -0.74500
O209        O  0.23605123  0.77755082  0.96082261    -0.74600
Ni210      Ni  0.27438499  0.78675124  0.98051658     1.25400
Ni211      Ni  0.24919795  0.76239922  0.98057975     1.25400
C212        C  0.24355526  0.79330313  0.95384413     0.87700
C213        C  0.28000597  0.75592888  0.00714804     0.87600
C214        C  0.28059396  0.75542191  0.95468633     0.87700
C215        C  0.24373662  0.79320400  0.00725751     0.87800
C216        C  0.85196910  0.36175696  0.61514361     0.03100
C217        C  0.84491794  0.37902636  0.62378177    -0.13100
C218        C  0.85209067  0.38555518  0.64196136     0.00600
C219        C  0.86748137  0.37514424  0.65091121    -0.11600
C220        C  0.87557234  0.35843125  0.64195361     0.03100
C221        C  0.86757802  0.35179107  0.62414869    -0.11000
H222        H  0.83357586  0.38729673  0.61637144     0.08700
H223        H  0.87267620  0.37955157  0.66524372     0.06200
H224        H  0.87329715  0.33860034  0.61747437     0.06000
O225        O  0.99722234  0.26819489  0.75052429    -0.74500
O226        O  0.03519643  0.29772631  0.72125212    -0.74500
O227        O  0.99555017  0.29602272  0.72220803    -0.74600
O228        O  0.03703782  0.26985037  0.74972018    -0.74600
O229        O  0.03814450  0.24704927  0.72633540    -0.74500
O230        O  0.99531143  0.27214463  0.69988551    -0.74500
O231        O  0.03504453  0.27461112  0.69815546    -0.74500
O232        O  0.99853620  0.24444827  0.72810947    -0.74600
Ni233      Ni  0.01623771  0.28378516  0.73675492     1.25400
Ni234      Ni  0.01675637  0.25875796  0.71230288     1.25400
C235        C  0.99169573  0.25138891  0.74415354     0.87700
C236        C  0.04143949  0.29094329  0.70487169     0.87600
C237        C  0.98844909  0.28828421  0.70663365     0.87700
C238        C  0.04459244  0.25424224  0.74245607     0.87800
C239        C  0.85920583  0.15157451  0.81268941     0.03100
C240        C  0.85087538  0.15949378  0.82979348    -0.13100
C241        C  0.85891267  0.17615334  0.83887426     0.00600
C242        C  0.87594740  0.18454328  0.83089643    -0.11600
C243        C  0.88452844  0.17705548  0.81369895     0.03100
C244        C  0.87606041  0.16046392  0.80478413    -0.11000
H245        H  0.83775004  0.15292347  0.83580511     0.08700
H246        H  0.88224919  0.19732805  0.83781393     0.06200
H247        H  0.88235061  0.15466480  0.79143590     0.06000
C248        C  0.68411354  0.38236711  0.82196668     0.03100
C249        C  0.66633281  0.37473380  0.81473581    -0.13100
C250        C  0.65736238  0.35834941  0.82355462     0.00600
C251        C  0.66625118  0.34997887  0.84015303    -0.11600
C252        C  0.68428860  0.35689295  0.84719360     0.03100
C253        C  0.69310200  0.37306021  0.83802929    -0.11000
H254        H  0.65955523  0.38147463  0.80210095     0.08700
H255        H  0.65911367  0.33803479  0.84777380     0.06200
H256        H  0.70733333  0.37798605  0.84305877     0.06000
O257        O  0.75076493  0.26726751  0.99934564    -0.74500
O258        O  0.77656212  0.23876366  0.95854285    -0.74500
O259        O  0.77822499  0.23870470  0.99842304    -0.74600
O260        O  0.74923947  0.26729491  0.95955156    -0.74600
O261        O  0.77305739  0.28969662  0.95838913    -0.74500
O262        O  0.80116583  0.26202355  0.99816991    -0.74500
O263        O  0.80059121  0.26094234  0.95824064    -0.74500
O264        O  0.77376146  0.29048345  0.99779603    -0.74600
Ni265      Ni  0.76287191  0.25216974  0.97898980     1.25400
Ni266      Ni  0.78803113  0.27653465  0.97807701     1.25400
C267        C  0.75793077  0.28362040  0.00519866     0.87700
C268        C  0.79274625  0.24521697  0.95155096     0.87600
C269        C  0.79416671  0.24605971  0.00514897     0.87700
C270        C  0.75637848  0.28325829  0.95266472     0.87800
C271        C  0.68974262  0.38007883  0.14084397     0.03100
C272        C  0.67366467  0.37083966  0.14976382    -0.13100
C273        C  0.66586127  0.35337397  0.14224286     0.00600
C274        C  0.67429965  0.34507403  0.12542339    -0.11600
C275        C  0.69072798  0.35376062  0.11642022     0.03100
C276        C  0.69819882  0.37137642  0.12416776    -0.11000
H277        H  0.66726629  0.37712550  0.16284604     0.08700
H278        H  0.66824093  0.33162645  0.11957531     0.06200
H279        H  0.71076289  0.37820509  0.11732442     0.06000
C280        C  0.37901161  0.68344092  0.13799732     0.03100
C281        C  0.37216506  0.66482278  0.14376935    -0.13100
C282        C  0.35630714  0.65587448  0.13408506     0.00600
C283        C  0.34803134  0.66542726  0.11782667    -0.11600
C284        C  0.35402326  0.68429942  0.11241717     0.03100
C285        C  0.36962036  0.69315939  0.12242740    -0.11000
H286        H  0.37882683  0.65759510  0.15620396     0.08700
H287        H  0.33639223  0.65843995  0.10959105     0.06200
H288        H  0.37380601  0.70800439  0.11866352     0.06000
C289        C  0.67979445  0.17795538  0.34552870     0.03100
C290        C  0.66312140  0.18601643  0.33644028    -0.13100
C291        C  0.65449202  0.17686621  0.32007918     0.00600
C292        C  0.66270520  0.15930878  0.31300807    -0.11600
C293        C  0.67951573  0.15120040  0.32170474     0.03100
C294        C  0.68759956  0.16039950  0.33824874    -0.11000
H295        H  0.65723575  0.19975131  0.34176025     0.08700
H296        H  0.65642388  0.15233362  0.30022364     0.06200
H297        H  0.70056682  0.15427062  0.34504353     0.06000
C298        C  0.35696712  0.19001572  0.34093544     0.03100
C299        C  0.34895330  0.17328743  0.33203970    -0.13100
C300        C  0.35714934  0.16551416  0.31487886     0.00600
C301        C  0.37363118  0.17459852  0.30659975    -0.11600
C302        C  0.38211033  0.19120534  0.31531641     0.03100
C303        C  0.37367436  0.19876767  0.33256606    -0.11000
H304        H  0.33617904  0.16635170  0.33840792     0.08700
H305        H  0.37976770  0.16874093  0.29320059     0.06200
H306        H  0.37997719  0.21162447  0.33938828     0.06000
C307        C  0.18738916  0.88331047  0.15136195     0.03100
C308        C  0.16932733  0.87696005  0.15876034    -0.13100
C309        C  0.15943639  0.86099848  0.15035026     0.00600
C310        C  0.16738774  0.85207059  0.13356640    -0.11600
C311        C  0.18522705  0.85865436  0.12558632     0.03100
C312        C  0.19523051  0.87414114  0.13477098    -0.11000
H313        H  0.16303635  0.88445432  0.17126266     0.08700
H314        H  0.15985675  0.83982524  0.12686188     0.06200
H315        H  0.20945946  0.87868694  0.12937570     0.06000
C316        C  0.35909680  0.85417335  0.35051677     0.03100
C317        C  0.37380248  0.84487182  0.33946846    -0.13100
C318        C  0.38272963  0.85435936  0.32353696     0.00600
C319        C  0.37631909  0.87320928  0.31829477    -0.11600
C320        C  0.36131559  0.88267996  0.32876092     0.03100
C321        C  0.35325688  0.87326156  0.34524820    -0.11000
H322        H  0.37780960  0.82988097  0.34277867     0.08700
H323        H  0.38273444  0.88032405  0.30566340     0.06200
H324        H  0.34230575  0.88077639  0.35391340     0.06000
O325        O  0.25279909  0.03877062  0.23332383    -0.74500
O326        O  0.28080074  0.00040367  0.26296495    -0.74500
O327        O  0.28117083  0.04000373  0.26106169    -0.74600
O328        O  0.25273572  0.99920680  0.23529739    -0.74600
O329        O  0.27541904  0.99829538  0.21173499    -0.74500
O330        O  0.30398356  0.03882411  0.23762751    -0.74500
O331        O  0.30380390  0.99913281  0.23976417    -0.74500
O332        O  0.27585709  0.03796115  0.21013162    -0.74600
Ni333      Ni  0.26607186  0.01965126  0.24899317     1.25400
Ni334      Ni  0.29060378  0.01845181  0.22398602     1.25400
C335        C  0.25975702  0.04481083  0.21696289     0.87700
C336        C  0.29684452  0.99336291  0.25626474     0.87600
C337        C  0.29708550  0.04633375  0.25336077     0.87700
C338        C  0.25940502  0.99205521  0.21928143     0.87800
C339        C  0.36038936  0.18624970  0.61576679     0.03100
C340        C  0.37764846  0.19465144  0.62340651    -0.13100
C341        C  0.38674799  0.18677148  0.64020839     0.00600
C342        C  0.37830724  0.17031049  0.64926227    -0.11600
C343        C  0.36128394  0.16162606  0.64172727     0.03100
C344        C  0.35267225  0.16944332  0.62481452    -0.11000
H345        H  0.38375448  0.20756578  0.61653531     0.08700
H346        H  0.38473807  0.16441147  0.66252174     0.06200
H347        H  0.33951021  0.16271746  0.61903740     0.06000
C348        C  0.15545217  0.36047802  0.64196680     0.03100
C349        C  0.16391166  0.35452173  0.62413537    -0.13100
C350        C  0.18244291  0.36141394  0.61820503     0.00600
C351        C  0.19182061  0.37565333  0.62980677    -0.11600
C352        C  0.18300597  0.38288531  0.64698600     0.03100
C353        C  0.16498906  0.37495445  0.65309327    -0.11000
H354        H  0.15604391  0.34427178  0.61494203     0.08700
H355        H  0.20633921  0.38069985  0.62588735     0.06200
H356        H  0.15852286  0.37991761  0.66668615     0.06000
C357        C  0.18482717  0.35914150  0.34098676     0.03100
C358        C  0.19193408  0.37612361  0.33182130    -0.13100
C359        C  0.18466749  0.38229404  0.31357498     0.00600
C360        C  0.16893469  0.37191524  0.30522492    -0.11600
C361        C  0.16031177  0.35588937  0.31494528     0.03100
C362        C  0.16863258  0.34937110  0.33270714    -0.11000
H363        H  0.20335588  0.38446561  0.33899682     0.08700
H364        H  0.16365090  0.37593416  0.29081891     0.06200
H365        H  0.16268624  0.33657914  0.33994562     0.06000
C366        C  0.85476646  0.15383351  0.14590208     0.03100
C367        C  0.87159920  0.16133943  0.15518940    -0.13100
C368        C  0.88100097  0.17833031  0.14816714     0.00600
C369        C  0.87336596  0.18763111  0.13136518    -0.11600
C370        C  0.85680679  0.18014200  0.12161469     0.03100
C371        C  0.84770210  0.16321465  0.12897642    -0.11000
H372        H  0.87715949  0.15412644  0.16817246     0.08700
H373        H  0.88014368  0.20090160  0.12593371     0.06200
H374        H  0.83479015  0.15753055  0.12169730     0.06000
C375        C  0.85816735  0.36087362  0.33752385     0.03100
C376        C  0.85107778  0.37870378  0.32987634    -0.13100
C377        C  0.86027418  0.38787028  0.31377304     0.00600
C378        C  0.87720901  0.37916035  0.30583758    -0.11600
C379        C  0.88414497  0.36108048  0.31281330     0.03100
C380        C  0.87445667  0.35204391  0.32853785    -0.11000
H381        H  0.83819183  0.38527986  0.33631268     0.08700
H382        H  0.88510417  0.38641445  0.29414898     0.06200
H383        H  0.87926628  0.33771533  0.33337844     0.06000
O384        O  0.00103103  0.29085836  0.23282487    -0.74500
O385        O  0.04104948  0.26017428  0.20855676    -0.74500
O386        O  0.00132975  0.26014245  0.20787751    -0.74600
O387        O  0.04082039  0.29085884  0.23360794    -0.74600
O388        O  0.04132464  0.26934200  0.25822156    -0.74500
O389        O  0.99994402  0.24020481  0.23374268    -0.74500
O390        O  0.03978432  0.23864765  0.23312536    -0.74500
O391        O  0.00144920  0.27098924  0.25878668    -0.74600
Ni392      Ni  0.02107546  0.27624100  0.21982777     1.25400
Ni393      Ni  0.02060753  0.25406090  0.24689461     1.25400
C394        C  0.99460151  0.28601846  0.24978310     0.87700
C395        C  0.04699834  0.24434281  0.21672361     0.87600
C396        C  0.99388949  0.24529654  0.21668977     0.87700
C397        C  0.04788739  0.28490372  0.24998314     0.87800
C398        C  0.18770026  0.65410561  0.31336290     0.03100
C399        C  0.17333363  0.66497257  0.30332481    -0.13100
C400        C  0.16509713  0.68191356  0.31167663     0.00600
C401        C  0.17177826  0.68812989  0.33015739    -0.11600
C402        C  0.18645736  0.67775364  0.34019069     0.03100
C403        C  0.19396267  0.66049813  0.33188785    -0.11000
H404        H  0.16903222  0.66057287  0.28869192     0.08700
H405        H  0.16577898  0.70129932  0.33663796     0.06200
H406        H  0.20473403  0.65201033  0.33989664     0.06000
C407        C  0.18289218  0.14933464  0.14678102     0.03100
C408        C  0.16606778  0.15722637  0.15566985    -0.13100
C409        C  0.15512543  0.17201313  0.14635417     0.00600
C410        C  0.16114271  0.17860606  0.12772790    -0.11600
C411        C  0.17833553  0.17141938  0.11893814     0.03100
C412        C  0.18889766  0.15655583  0.12847251    -0.11000
H413        H  0.16207916  0.15248657  0.17028555     0.08700
H414        H  0.15258353  0.18959989  0.12012520     0.06200
H415        H  0.20217946  0.15091554  0.12187739     0.06000
C416        C  0.38721712  0.35557677  0.13825025     0.03100
C417        C  0.37720486  0.34467492  0.12385809    -0.13100
C418        C  0.35979035  0.35171906  0.11529263     0.00600
C419        C  0.35210529  0.36970617  0.12181227    -0.11600
C420        C  0.36155772  0.38058343  0.13653989     0.03100
C421        C  0.37944479  0.37371131  0.14411888    -0.11000
H422        H  0.38259815  0.33032226  0.11979347     0.08700
H423        H  0.33848893  0.37507602  0.11570493     0.06200
H424        H  0.38727488  0.38250133  0.15476334     0.06000
C425        C  0.18302629  0.16022840  0.81060636     0.03100
C426        C  0.16640836  0.16865948  0.80170327    -0.13100
C427        C  0.15757430  0.18562178  0.80965302     0.00600
C428        C  0.16587111  0.19410199  0.82663364    -0.11600
C429        C  0.18212374  0.18556630  0.83606036     0.03100
C430        C  0.19017601  0.16838496  0.82810988    -0.11000
H431        H  0.16057806  0.16214558  0.78846617     0.08700
H432        H  0.16003289  0.20775351  0.83220319     0.06200
H433        H  0.20221170  0.16121407  0.83557550     0.06000
C434        C  0.34977579  0.34715107  0.84323875     0.03100
C435        C  0.36676880  0.33923282  0.83465067    -0.13100
C436        C  0.37559710  0.34824915  0.81834946     0.00600
C437        C  0.36732331  0.36565325  0.81102393    -0.11600
C438        C  0.34977652  0.37320717  0.81864234     0.03100
C439        C  0.34118139  0.36392110  0.83488292    -0.11000
H440        H  0.37298703  0.32594512  0.84064444     0.08700
H441        H  0.37454726  0.37344570  0.79924731     0.06200
H442        H  0.32744892  0.36935919  0.84069121     0.06000
O443        O  0.26375206  0.23339128  0.00166537    -0.74500
O444        O  0.29273092  0.26276195  0.96356825    -0.74500
O445        O  0.29281295  0.26074209  0.00333100    -0.74600
O446        O  0.26396996  0.23580874  0.96182076    -0.74600
O447        O  0.24152869  0.25952419  0.96327946    -0.74500
O448        O  0.27021573  0.28430640  0.00486457    -0.74500
O449        O  0.27053038  0.28672207  0.96516149    -0.74500
O450        O  0.24144121  0.25723873  0.00305574    -0.74600
Ni451      Ni  0.27910831  0.24731554  0.98260914     1.25400
Ni452      Ni  0.25513061  0.27277678  0.98413034     1.25400
C453        C  0.24786092  0.24052360  0.00872223     0.87700
C454        C  0.28627031  0.27946024  0.95791674     0.87600
C455        C  0.28628304  0.27667057  0.01090980     0.87700
C456        C  0.24814308  0.24374799  0.95548483     0.87800
O457        O  0.27064627  0.53759444  0.24739713    -0.74500
O458        O  0.29647563  0.49702958  0.21877503    -0.74500
O459        O  0.29761471  0.53667941  0.21817825    -0.74600
O460        O  0.26952537  0.49787061  0.24768738    -0.74600
O461        O  0.24586381  0.49791832  0.22511517    -0.74500
O462        O  0.27318269  0.53732961  0.19644619    -0.74500
O463        O  0.27294387  0.49769179  0.19606582    -0.74500
O464        O  0.24629961  0.53739019  0.22556042    -0.74600
Ni465      Ni  0.28443087  0.51729293  0.23380470     1.25400
Ni466      Ni  0.25873870  0.51760548  0.20999336     1.25400
C467        C  0.25407158  0.54402137  0.24134153     0.87700
C468        C  0.28903706  0.49064938  0.20276064     0.87600
C469        C  0.28986175  0.54350033  0.20246468     0.87700
C470        C  0.25309257  0.49143347  0.24117530     0.87800
O471        O  0.50539580  0.27487638  0.20255756    -0.74500
O472        O  0.54289420  0.24482429  0.23117463    -0.74500
O473        O  0.50319761  0.24682372  0.23064480    -0.74600
O474        O  0.54491723  0.27303636  0.20331731    -0.74600
O475        O  0.54615541  0.29540291  0.22713654    -0.74500
O476        O  0.50352644  0.27039711  0.25329497    -0.74500
O477        O  0.54307248  0.26721403  0.25499137    -0.74500
O478        O  0.50638553  0.29822998  0.22540390    -0.74600
Ni479      Ni  0.52407429  0.25905994  0.21611134     1.25400
Ni480      Ni  0.52483688  0.28364184  0.24102854     1.25400
C481        C  0.49967828  0.29147448  0.20917063     0.87700
C482        C  0.54914623  0.25094419  0.24778330     0.87600
C483        C  0.49629562  0.25455123  0.24633993     0.87700
C484        C  0.55251097  0.28847118  0.21089162     0.87800
O485        O  0.27130519  0.30138199  0.46094020    -0.74500
O486        O  0.29698046  0.27106126  0.50058597    -0.74500
O487        O  0.29750082  0.27155321  0.46115391    -0.74600
O488        O  0.27065386  0.30100115  0.50074653    -0.74600
O489        O  0.24651271  0.27897299  0.50049089    -0.74500
O490        O  0.27265386  0.25031562  0.45998737    -0.74500
O491        O  0.27263079  0.24923875  0.49973865    -0.74500
O492        O  0.24645934  0.28011937  0.46090789    -0.74600
Ni493      Ni  0.28497043  0.28704378  0.48089188     1.25400
Ni494      Ni  0.25869241  0.26389724  0.48025351     1.25400
C495        C  0.25461297  0.29573869  0.45440868     0.87700
C496        C  0.28914368  0.25506751  0.50654296     0.87600
C497        C  0.28950021  0.25612199  0.45403744     0.87700
C498        C  0.25417685  0.29472565  0.50727245     0.87800
O499        O  0.26484180  0.73609810  0.50239953    -0.74500
O500        O  0.29431752  0.76403058  0.46364056    -0.74500
O501        O  0.29291299  0.76442237  0.50333878    -0.74600
O502        O  0.26634709  0.73603157  0.46274551    -0.74600
O503        O  0.24272065  0.75864387  0.46246032    -0.74500
O504        O  0.26983206  0.78754693  0.50197249    -0.74500
O505        O  0.27078022  0.78665007  0.46216646    -0.74500
O506        O  0.24204008  0.75955197  0.50208691    -0.74600
Ni507      Ni  0.28043774  0.74931467  0.48309467     1.25400
Ni508      Ni  0.25554027  0.77392806  0.48212040     1.25400
C509        C  0.24868043  0.74328608  0.50872014     0.87700
C510        C  0.28727647  0.77980851  0.45627888     0.87600
C511        C  0.28568143  0.78069766  0.50934429     0.87700
C512        C  0.25012975  0.74268168  0.45596172     0.87800
O513        O  0.76705113  0.25063551  0.49723438    -0.74500
O514        O  0.79565474  0.27576797  0.45592232    -0.74500
O515        O  0.79441256  0.27910432  0.49544706    -0.74600
O516        O  0.76819208  0.24699872  0.45762030    -0.74600
O517        O  0.74508787  0.26991135  0.45428205    -0.74500
O518        O  0.77025752  0.30106841  0.49355383    -0.74500
O519        O  0.77225727  0.29849801  0.45379166    -0.74500
O520        O  0.74294430  0.27247155  0.49391463    -0.74600
Ni521      Ni  0.78216802  0.26231235  0.47663010     1.25400
Ni522      Ni  0.75680628  0.28629459  0.47378523     1.25400
C523        C  0.75033947  0.25746724  0.50245234     0.87700
C524        C  0.78863747  0.29132603  0.44804392     1.01200
C525        C  0.78643797  0.29514034  0.50105866     0.87700
C526        C  0.75247883  0.25333145  0.44949395     0.87800
O527        O  0.26289582  0.50030624  0.71358569    -0.74500
O528        O  0.29332173  0.53784376  0.74207759    -0.74500
O529        O  0.29213895  0.49798580  0.74004258    -0.74600
O530        O  0.26407551  0.53998508  0.71571953    -0.74600
O531        O  0.24148599  0.53867438  0.73933065    -0.74500
O532        O  0.27073899  0.49796859  0.76475647    -0.74500
O533        O  0.27105698  0.53770849  0.76600215    -0.74500
O534        O  0.24144946  0.49879909  0.73821282    -0.74600
Ni535      Ni  0.27889135  0.51905528  0.72701286     1.25400
Ni536      Ni  0.25538864  0.51829902  0.75295020     1.25400
C537        C  0.24743751  0.49301125  0.72136871     0.87700
C538        C  0.28704469  0.54425114  0.75857365     0.87600
C539        C  0.28594722  0.49090434  0.75630769     0.87700
C540        C  0.24817189  0.54624098  0.72348028     0.87800
O541        O  0.74278287  0.54298473  0.22588879    -0.74500
O542        O  0.77156827  0.50247090  0.25192790    -0.74500
O543        O  0.77147181  0.54191625  0.25324159    -0.74600
O544        O  0.74286407  0.50314752  0.22433575    -0.74600
O545        O  0.76599793  0.50355094  0.20123577    -0.74500
O546        O  0.79361613  0.54330823  0.22922802    -0.74500
O547        O  0.79448845  0.50362380  0.22865401    -0.74500
O548        O  0.76489784  0.54326014  0.20181265    -0.74600
Ni549      Ni  0.75632386  0.52258606  0.23965639     1.25400
Ni550      Ni  0.78053273  0.52348425  0.21437543     1.25400
C551        C  0.74911462  0.54986121  0.20959980     0.87700
C552        C  0.78790514  0.49656650  0.24478742     0.87600
C553        C  0.78725267  0.54901668  0.24593732     0.87700
C554        C  0.75001268  0.49664385  0.20821391     0.87800
O555        O  0.50268940  0.24687434  0.72807738    -0.74500
O556        O  0.54032768  0.27469601  0.75895328    -0.74500
O557        O  0.50057581  0.27291509  0.75798120    -0.74600
O558        O  0.54216831  0.24873667  0.72887343    -0.74600
O559        O  0.54196948  0.27381499  0.70786729    -0.74500
O560        O  0.49974246  0.29714737  0.73604336    -0.74500
O561        O  0.53922506  0.29964122  0.73785003    -0.74500
O562        O  0.50229127  0.27135452  0.70639142    -0.74600
Ni563      Ni  0.52148961  0.25993461  0.74426633     1.25400
Ni564      Ni  0.52082071  0.28636250  0.72128277     1.25400
C565        C  0.49622652  0.25454172  0.71219774     0.87700
C566        C  0.54592704  0.29179392  0.75356182     0.87600
C567        C  0.49304037  0.28887038  0.75148872     0.87700
C568        C  0.54886389  0.25731210  0.71354884     0.87800
O569        O  0.49572071  0.79410112  0.23117138    -0.74500
O570        O  0.53564014  0.76799861  0.20189089    -0.74500
O571        O  0.49595596  0.76700915  0.20228771    -0.74600
O572        O  0.53540784  0.79503473  0.23087372    -0.74600
O573        O  0.53700612  0.77056924  0.25250329    -0.74500
O574        O  0.49597422  0.74381186  0.22532897    -0.74500
O575        O  0.53564811  0.74346431  0.22350473    -0.74500
O576        O  0.49727192  0.77095415  0.25420612    -0.74600
Ni577      Ni  0.51565906  0.78188428  0.21576378     1.25400
Ni578      Ni  0.51651015  0.75634446  0.23969211     1.25400
C579        C  0.48992227  0.78692044  0.24752248     0.87700
C580        C  0.54214916  0.75138677  0.20774107     0.87600
C581        C  0.48924856  0.75091642  0.20929514     0.87700
C582        C  0.54290520  0.78726975  0.24626658     0.87800
O583        O  0.77280607  0.74227021  0.45903790    -0.74500
O584        O  0.74509053  0.76790204  0.50046662    -0.74500
O585        O  0.74362625  0.76897888  0.46091987    -0.74600
O586        O  0.77426656  0.74094570  0.49840639    -0.74600
O587        O  0.79680053  0.76464315  0.49799246    -0.74500
O588        O  0.76510969  0.79362926  0.46165007    -0.74500
O589        O  0.76780967  0.79143423  0.50124681    -0.74500
O590        O  0.79436496  0.76684937  0.45827958    -0.74600
Ni591      Ni  0.75815996  0.75419097  0.47973062     1.25400
Ni592      Ni  0.78183276  0.78001313  0.47977158     1.25400
C593        C  0.78811799  0.75035877  0.45178093     0.87700
C594        C  0.75192805  0.78381784  0.50774192     0.87600
C595        C  0.74922479  0.78593298  0.45515728     0.87700
C596        C  0.79062819  0.74803178  0.50427054     0.87800
O597        O  0.79565613  0.50216348  0.73112410    -0.74500
O598        O  0.76912835  0.54071071  0.76215449    -0.74500
O599        O  0.76911108  0.50100057  0.76078179    -0.74600
O600        O  0.79554075  0.54188425  0.73269622    -0.74600
O601        O  0.77069382  0.54311256  0.71146753    -0.74500
O602        O  0.74512902  0.50121850  0.73853666    -0.74500
O603        O  0.74433665  0.54071201  0.74080145    -0.74500
O604        O  0.77141377  0.50341002  0.70920585    -0.74600
Ni605      Ni  0.78325109  0.52138544  0.74747437     1.25400
Ni606      Ni  0.75706094  0.52214260  0.72421480     1.25400
C607        C  0.78780482  0.49636512  0.71506060     0.87700
C608        C  0.75234865  0.54704961  0.75654474     0.87600
C609        C  0.75280530  0.49430966  0.75422141     0.87700
C610        C  0.78724026  0.54952128  0.71766502     0.87800
O611        O  0.49714288  0.76724466  0.75622295    -0.74500
O612        O  0.53589050  0.79310845  0.72527847    -0.74500
O613        O  0.49646748  0.79303283  0.72613449    -0.74600
O614        O  0.53690264  0.76694045  0.75528172    -0.74600
O615        O  0.53707901  0.74276668  0.73325406    -0.74500
O616        O  0.49529971  0.76777198  0.70541189    -0.74500
O617        O  0.53507643  0.76876308  0.70347142    -0.74500
O618        O  0.49728676  0.74189476  0.73558106    -0.74600
Ni619      Ni  0.51664326  0.78092473  0.74151545     1.25400
Ni620      Ni  0.51614986  0.75439301  0.71867199     1.25400
C621        C  0.49073318  0.75039388  0.75103231     0.87700
C622        C  0.54169955  0.78541600  0.70918633     0.87600
C623        C  0.48919629  0.78463597  0.71097501     0.87700
C624        C  0.54385363  0.75069560  0.74885123     0.87800
C625        C  0.34081890  0.33775416  0.86075409    -0.01300
C626        C  0.33308797  0.34925383  0.87592486    -0.09400
C627        C  0.32464941  0.34058562  0.89243791    -0.18200
C628        C  0.32373398  0.31996572  0.89439116     0.04200
C629        C  0.33197185  0.30837180  0.87915224     0.18400
C630        C  0.34017436  0.31728546  0.86252641    -0.19600
C631        C  0.33196137  0.28791263  0.88054059    -0.20900
C632        C  0.32388427  0.27863929  0.89676024    -0.19400
C633        C  0.31526799  0.28958277  0.91180541     0.19800
C634        C  0.31490484  0.31040860  0.91082048     0.01900
C635        C  0.30532777  0.32067213  0.92610722    -0.14200
C636        C  0.29622413  0.31062793  0.94146632    -0.11900
C637        C  0.29677558  0.29014910  0.94234490     0.01400
C638        C  0.30658684  0.27974109  0.92763883    -0.24100
H639        H  0.33377312  0.36509824  0.87515175     0.09400
H640        H  0.31916877  0.35043416  0.90349544     0.13000
H641        H  0.34586851  0.30818859  0.85081165     0.11700
H642        H  0.33829629  0.27900532  0.86901021     0.12900
H643        H  0.32411941  0.26276361  0.89740025     0.12000
H644        H  0.30420673  0.33642048  0.92639325     0.09000
H645        H  0.28869541  0.31892310  0.95272099     0.12300
H646        H  0.30680169  0.26384705  0.92811916     0.14200
C647        C  0.39290212  0.33927889  0.80837055    -0.01300
C648        C  0.39537441  0.34165122  0.78807167    -0.09400
C649        C  0.41153651  0.33382725  0.77842574    -0.18200
C650        C  0.42572657  0.32277165  0.78865251     0.04200
C651        C  0.42268269  0.31927696  0.80894760     0.18400
C652        C  0.40669641  0.32791207  0.81868789    -0.19600
C653        C  0.43553826  0.30706509  0.81932872    -0.20900
C654        C  0.45133766  0.29821346  0.80991160    -0.19400
C655        C  0.45512088  0.30201094  0.79009284     0.19800
C656        C  0.44260352  0.31474941  0.77932933     0.01900
C657        C  0.44769503  0.31923662  0.75977115    -0.14200
C658        C  0.46415319  0.31094598  0.75108095    -0.11900
C659        C  0.47604107  0.29779364  0.76143071     0.01400
C660        C  0.47146272  0.29335109  0.78097347    -0.24100
H661        H  0.38458730  0.34936072  0.77934774     0.09400
H662        H  0.41214471  0.33618802  0.76281786     0.13000
H663        H  0.40517776  0.32581337  0.83434971     0.11700
H664        H  0.43320128  0.30412050  0.83476897     0.12900
H665        H  0.46085491  0.28861177  0.81826989     0.12000
H666        H  0.43950230  0.32941437  0.75089049     0.09000
H667        H  0.46744140  0.31472648  0.73600547     0.12300
H668        H  0.48079428  0.28342885  0.78917912     0.14200
C669        C  0.34022746  0.39035408  0.80907299    -0.01300
C670        C  0.34080963  0.39241786  0.78860886    -0.09400
C671        C  0.33231930  0.40855907  0.77938217    -0.18200
C672        C  0.32266072  0.42322952  0.79034520     0.04200
C673        C  0.32138308  0.42072045  0.81100652     0.18400
C674        C  0.33033219  0.40457023  0.82015183    -0.19600
C675        C  0.31114297  0.43432956  0.82243244    -0.20900
C676        C  0.30206537  0.45038996  0.81377097    -0.19400
C677        C  0.30346365  0.45352999  0.79354205     0.19800
C678        C  0.31406205  0.44017895  0.78155239     0.01900
C679        C  0.31580803  0.44454155  0.76134418    -0.14200
C680        C  0.30707080  0.46123558  0.75337462    -0.11900
C681        C  0.29612176  0.47397432  0.76515147     0.01400
C682        C  0.29438395  0.47003608  0.78523526    -0.24100
H683        H  0.34770691  0.38135052  0.77956001     0.09400
H684        H  0.33329035  0.40893637  0.76362136     0.13000
H685        H  0.32975333  0.40321997  0.83597602     0.11700
H686        H  0.30999663  0.43244825  0.83817196     0.12900
H687        H  0.29407979  0.46055770  0.82300197     0.12000
H688        H  0.32400685  0.43549018  0.75133854     0.09000
H689        H  0.30858237  0.46397326  0.73779906     0.12300
H690        H  0.28608917  0.47995960  0.79447567     0.14200
C691        C  0.23762573  0.23486546  0.93864410    -0.01300
C692        C  0.21754559  0.23820232  0.93585190    -0.09400
C693        C  0.20770139  0.23037172  0.91962818    -0.18200
C694        C  0.21778835  0.21920745  0.90534411     0.04200
C695        C  0.23825904  0.21620159  0.90808688     0.18400
C696        C  0.24783390  0.22368373  0.92475436    -0.19600
C697        C  0.24916051  0.20602320  0.89401236    -0.20900
C698        C  0.24022834  0.19886200  0.87715689    -0.19400
C699        C  0.22005964  0.20123379  0.87416669     0.19800
C700        C  0.20844579  0.21116993  0.88831361     0.01900
C701        C  0.18802166  0.21246547  0.88480298    -0.14200
C702        C  0.17956911  0.20425937  0.86797255    -0.11900
C703        C  0.19112765  0.19469246  0.85389311     0.01400
C704        C  0.21146070  0.19353736  0.85710605    -0.24100
H705        H  0.20935834  0.24687783  0.94632981     0.09400
H706        H  0.19228321  0.23362995  0.91847777     0.13000
H707        H  0.26345090  0.22130440  0.92660225     0.11700
H708        H  0.26477822  0.20378057  0.89594022     0.12900
H709        H  0.24914813  0.19121470  0.86646222     0.12000
H710        H  0.17812845  0.21938159  0.89498831     0.09000
H711        H  0.16381660  0.20512797  0.86620286     0.12300
H712        H  0.22077712  0.18663786  0.84625129     0.14200
C713        C  0.34938497  0.34004446  0.09995304    -0.01300
C714        C  0.35999926  0.32919989  0.08607177    -0.09400
C715        C  0.35041678  0.31819740  0.07167960    -0.18200
C716        C  0.32971632  0.31784430  0.07046165     0.04200
C717        C  0.31899420  0.32922037  0.08423451     0.18400
C718        C  0.32880599  0.33982394  0.09893028    -0.19600
C719        C  0.29851403  0.33010676  0.08317421    -0.20900
C720        C  0.28842477  0.32017072  0.06850807    -0.19400
C721        C  0.29850952  0.30863383  0.05486768     0.19800
C722        C  0.31926838  0.30690937  0.05590802     0.01900
C723        C  0.32859564  0.29420609  0.04241536    -0.14200
C724        C  0.31781062  0.28412219  0.02818182    -0.11900
C725        C  0.29747680  0.28655487  0.02669395     0.01400
C726        C  0.28791792  0.29877608  0.04017637    -0.24100
H727        H  0.37587529  0.32942052  0.08610506     0.09400
H728        H  0.35964024  0.31046847  0.06145363     0.13000
H729        H  0.32028372  0.34783252  0.10967201     0.11700
H730        H  0.29024552  0.33880362  0.09358549     0.12900
H731        H  0.27259171  0.32142316  0.06790673     0.12000
H732        H  0.34417846  0.29160882  0.04259499     0.09000
H733        H  0.32550513  0.27466857  0.01800763     0.12300
H734        H  0.27212703  0.30047610  0.03935120     0.14200
C735        C  0.35198078  0.39821019  0.14514508    -0.01300
C736        C  0.34082520  0.41104320  0.13355936    -0.09400
C737        C  0.33039495  0.42649881  0.14206098    -0.18200
C738        C  0.33091410  0.42972425  0.16254144     0.04200
C739        C  0.34300353  0.41725011  0.17406571     0.18400
C740        C  0.35311033  0.40162933  0.16539359    -0.19600
C741        C  0.34481471  0.42025990  0.19426754    -0.20900
C742        C  0.33485385  0.43546291  0.20335682    -0.19400
C743        C  0.32244125  0.44769040  0.19254833     0.19800
C744        C  0.31998248  0.44485599  0.17204032     0.01900
C745        C  0.30644254  0.45706758  0.16209567    -0.14200
C746        C  0.29615906  0.47172649  0.17208303    -0.11900
C747        C  0.29925764  0.47482743  0.19214022     0.01400
C748        C  0.31235643  0.46268693  0.20225256    -0.24100
H749        H  0.34007121  0.40911387  0.11781987     0.09400
H750        H  0.32217447  0.43574223  0.13222146     0.13000
H751        H  0.36144244  0.39174080  0.17464017     0.11700
H752        H  0.35409861  0.41084729  0.20309696     0.12900
H753        H  0.33668500  0.43751734  0.21901277     0.12000
H754        H  0.30331408  0.45549112  0.14668477     0.09000
H755        H  0.28596808  0.48085878  0.16401309     0.12300
H756        H  0.31454187  0.46474367  0.21787373     0.14200
C757        C  0.48487457  0.30260996  0.19790177    -0.01300
C758        C  0.48201760  0.29854178  0.17797525    -0.09400
C759        C  0.46723669  0.30785064  0.16734922    -0.18200
C760        C  0.45449746  0.32142428  0.17643825     0.04200
C761        C  0.45747519  0.32555254  0.19667813     0.18400
C762        C  0.47276961  0.31642442  0.20708912    -0.19600
C763        C  0.44481469  0.33832279  0.20654295    -0.20900
C764        C  0.42890110  0.34665769  0.19688723    -0.19400
C765        C  0.42551914  0.34280430  0.17700346     0.19800
C766        C  0.43855596  0.33055965  0.16634625     0.01900
C767        C  0.43493164  0.32786101  0.14610186    -0.14200
C768        C  0.41862949  0.33630788  0.13704323    -0.11900
C769        C  0.40524926  0.34762123  0.14777566     0.01400
C770        C  0.40899323  0.35094929  0.16777652    -0.24100
H771        H  0.49119710  0.28793582  0.17053158     0.09400
H772        H  0.46584954  0.30367824  0.15218073     0.13000
H773        H  0.47473692  0.31948961  0.22256806     0.11700
H774        H  0.44697140  0.34153991  0.22195740     0.12900
H775        H  0.41912030  0.35614176  0.20505872     0.12000
H776        H  0.44448070  0.31940477  0.13679793     0.09000
H777        H  0.41654540  0.33396322  0.12147903     0.12300
H778        H  0.39876418  0.35949770  0.17640954     0.14200
C779        C  0.23686729  0.22951690  0.02381046    -0.01300
C780        C  0.23895054  0.20917720  0.02560828    -0.09400
C781        C  0.22866340  0.19882202  0.03999911    -0.18200
C782        C  0.21615481  0.20862872  0.05333980     0.04200
C783        C  0.21442518  0.22933567  0.05163126     0.18400
C784        C  0.22446862  0.23946166  0.03680641    -0.19600
C785        C  0.20294166  0.23990481  0.06492931    -0.20900
C786        C  0.19336216  0.23039975  0.08017051    -0.19400
C787        C  0.19467084  0.21003761  0.08223264     0.19800
C788        C  0.20570302  0.19877042  0.06860912     0.01900
C789        C  0.20586899  0.17817524  0.07099103    -0.14200
C790        C  0.19630108  0.16929876  0.08678038    -0.11900
C791        C  0.18632600  0.18057273  0.10078615     0.01400
C792        C  0.18529155  0.20094259  0.09812644    -0.24100
H793        H  0.24849780  0.20119313  0.01574874     0.09400
H794        H  0.23109667  0.18322652  0.04053273     0.13000
H795        H  0.22300535  0.25525549  0.03570283     0.11700
H796        H  0.20162599  0.25569526  0.06373520     0.12900
H797        H  0.18488561  0.23905542  0.09044847     0.12000
H798        H  0.21327015  0.16852431  0.06091881     0.09000
H799        H  0.19690748  0.15349324  0.08812409     0.12300
H800        H  0.17780331  0.20992195  0.10888277     0.14200
C801        C  0.19668215  0.63653437  0.30414787    -0.01300
C802        C  0.18521881  0.62362819  0.29302487    -0.09400
C803        C  0.19371183  0.60775702  0.28334845    -0.18200
C804        C  0.21411332  0.60421948  0.28449619     0.04200
C805        C  0.22555305  0.61678972  0.29655639     0.18400
C806        C  0.21683757  0.63281190  0.30606877    -0.19600
C807        C  0.24568123  0.61347213  0.29883270    -0.20900
C808        C  0.25480009  0.59806951  0.28910835    -0.19400
C809        C  0.24409042  0.58588359  0.27653922     0.19800
C810        C  0.22359779  0.58881591  0.27397916     0.01900
C811        C  0.21360737  0.57655012  0.26057409    -0.14200
C812        C  0.22356998  0.56213452  0.25006944    -0.11900
C813        C  0.24370698  0.55922792  0.25272987     0.01400
C814        C  0.25384595  0.57100844  0.26618098    -0.24100
H815        H  0.16953567  0.62580383  0.29177351     0.09400
H816        H  0.18387621  0.59851761  0.27514360     0.13000
H817        H  0.22592409  0.64271497  0.31455622     0.11700
H818        H  0.25445284  0.62290458  0.30814564     0.12900
H819        H  0.27041909  0.59591859  0.29112751     0.12000
H820        H  0.19817140  0.57795700  0.25754447     0.09000
H821        H  0.21540224  0.55314864  0.23982704     0.12300
H822        H  0.26948148  0.56894262  0.26822615     0.14200
C823        C  0.19481528  0.68563056  0.35869289    -0.01300
C824        C  0.18286730  0.69499008  0.37253421    -0.09400
C825        C  0.19098844  0.70377877  0.38913707    -0.18200
C826        C  0.21145674  0.70340534  0.39248995     0.04200
C827        C  0.22339269  0.69315952  0.37883596     0.18400
C828        C  0.21506346  0.68461184  0.36211751    -0.19600
C829        C  0.24364138  0.69169792  0.38177481    -0.20900
C830        C  0.25239298  0.70033957  0.39798652    -0.19400
C831        C  0.24116624  0.71103453  0.41138880     0.19800
C832        C  0.22054939  0.71289749  0.40877862     0.01900
C833        C  0.21006031  0.72460087  0.42230018    -0.14200
C834        C  0.21969356  0.73412350  0.43762866    -0.11900
C835        C  0.23994263  0.73200817  0.44020358     0.01400
C836        C  0.25055254  0.72025598  0.42718167    -0.24100
H837        H  0.16712592  0.69557284  0.37052061     0.09400
H838        H  0.18084539  0.71066110  0.39909054     0.13000
H839        H  0.22452601  0.67761504  0.35144026     0.11700
H840        H  0.25278576  0.68380533  0.37145452     0.12900
H841        H  0.26811535  0.69894018  0.39986518     0.12000
H842        H  0.19449559  0.72705760  0.42119149     0.09000
H843        H  0.21123088  0.74318362  0.44755146     0.12300
H844        H  0.26629410  0.71881413  0.42895681     0.14200
C845        C  0.06259370  0.23281067  0.20704144    -0.01300
C846        C  0.06539414  0.21291185  0.21128401    -0.09400
C847        C  0.08001339  0.20212829  0.20171931    -0.18200
C848        C  0.09250201  0.21108203  0.18774682     0.04200
C849        C  0.08983972  0.23141386  0.18397171     0.18400
C850        C  0.07492253  0.24191532  0.19339242    -0.19600
C851        C  0.10212565  0.24126608  0.17085502    -0.20900
C852        C  0.11711229  0.23138342  0.16133774    -0.19400
C853        C  0.11996325  0.21132184  0.16442103     0.19800
C854        C  0.10762116  0.20076427  0.17748691     0.01900
C855        C  0.11094801  0.18039232  0.17955531    -0.14200
C856        C  0.12602112  0.17103725  0.16923851    -0.11900
C857        C  0.13841077  0.18163988  0.15667104     0.01400
C858        C  0.13521015  0.20182734  0.15446231    -0.24100
H859        H  0.05608535  0.20558169  0.22185804     0.09400
H860        H  0.08128758  0.18688516  0.20567617     0.13000
H861        H  0.07307939  0.25739348  0.19024371     0.11700
H862        H  0.10020630  0.25678415  0.16801566     0.12900
H863        H  0.12646209  0.23948171  0.15135796     0.12000
H864        H  0.10202769  0.17126392  0.18887040     0.09000
H865        H  0.12787989  0.15537937  0.17105168     0.12300
H866        H  0.14487752  0.21039521  0.14521125     0.14200
C867        C  0.90097145  0.35114786  0.30313883    -0.01300
C868        C  0.90284645  0.35146441  0.28268019    -0.09400
C869        C  0.91810314  0.34151358  0.27338100    -0.18200
C870        C  0.93204472  0.33069196  0.28429201     0.04200
C871        C  0.93011494  0.33043039  0.30504594     0.18400
C872        C  0.91481620  0.34070515  0.31421766    -0.19600
C873        C  0.94334793  0.31975198  0.31654398    -0.20900
C874        C  0.95836309  0.30906311  0.30786183    -0.19400
C875        C  0.96065614  0.30895478  0.28747471     0.19800
C876        C  0.94768046  0.31996084  0.27538486     0.01900
C877        C  0.95094107  0.31971545  0.25491268    -0.14200
C878        C  0.96629261  0.30890364  0.24683426    -0.11900
C879        C  0.97878526  0.29779134  0.25875997     0.01400
C880        C  0.97587484  0.29786794  0.27909109    -0.24100
H881        H  0.89217981  0.35908881  0.27371228     0.09400
H882        H  0.91835302  0.34234097  0.25761450     0.13000
H883        H  0.91367948  0.34053828  0.33007329     0.11700
H884        H  0.94195978  0.31950470  0.33237425     0.12900
H885        H  0.96825534  0.30080650  0.31717163     0.12000
H886        H  0.94195977  0.32776334  0.24471382     0.09000
H887        H  0.96819938  0.30901563  0.23106399     0.12300
H888        H  0.98559395  0.28942699  0.28843228     0.14200
C889        C  0.79932869  0.48155990  0.25549691    -0.01300
C890        C  0.79597973  0.47841425  0.27551640    -0.09400
C891        C  0.80669085  0.46440146  0.28589074    -0.18200
C892        C  0.82096351  0.45274182  0.27643071     0.04200
C893        C  0.82395796  0.45563812  0.25599173     0.18400
C894        C  0.81349103  0.47022173  0.24585668    -0.19600
C895        C  0.83702438  0.44363450  0.24570111    -0.20900
C896        C  0.84664261  0.42833053  0.25513720    -0.19400
C897        C  0.84404546  0.42516190  0.27525829     0.19800
C898        C  0.83182106  0.43782074  0.28634882     0.01900
C899        C  0.83096185  0.43492361  0.30685375    -0.14200
C900        C  0.84082056  0.41932808  0.31575774    -0.11900
C901        C  0.85160362  0.40582580  0.30457316     0.01400
C902        C  0.85337374  0.40917766  0.28428391    -0.24100
H903        H  0.78507492  0.48694632  0.28328881     0.09400
H904        H  0.80308352  0.46266564  0.30117716     0.13000
H905        H  0.81598201  0.47236245  0.23029863     0.11700
H906        H  0.83938167  0.44572764  0.23012433     0.12900
H907        H  0.85619236  0.41890544  0.24663134     0.12000
H908        H  0.82296067  0.44460687  0.31643628     0.09000
H909        H  0.83985220  0.41786922  0.33152601     0.12300
H910        H  0.86150037  0.39900283  0.27521328     0.14200
C911        C  0.84840447  0.35105477  0.35450188    -0.01300
C912        C  0.85950202  0.34022166  0.36805881    -0.09400
C913        C  0.85052899  0.33017141  0.38346260    -0.18200
C914        C  0.82999987  0.33085205  0.38612271     0.04200
C915        C  0.81885795  0.34253446  0.37292145     0.18400
C916        C  0.82802029  0.35218314  0.35719021    -0.19600
C917        C  0.79859535  0.34451189  0.37546001    -0.20900
C918        C  0.78912886  0.33517713  0.39089097    -0.19400
C919        C  0.79960064  0.32321209  0.40386317     0.19800
C920        C  0.82013813  0.32056528  0.40149678     0.01900
C921        C  0.82980117  0.30753732  0.41446103    -0.14200
C922        C  0.81954190  0.29792576  0.42937193    -0.11900
C923        C  0.79943918  0.30114664  0.43201729     0.01400
C924        C  0.78957347  0.31377101  0.41914605    -0.24100
H925        H  0.87531904  0.33955920  0.36687870     0.09400
H926        H  0.86011045  0.32226408  0.39323177     0.13000
H927        H  0.81910051  0.36028389  0.34683687     0.11700
H928        H  0.79001927  0.35348965  0.36553230     0.12900
H929        H  0.77345006  0.33716775  0.39256442     0.12000
H930        H  0.84521503  0.30426859  0.41330606     0.09000
H931        H  0.82745298  0.28810460  0.43903410     0.12300
H932        H  0.77392981  0.31606320  0.42084813     0.14200
C933        C  0.89828465  0.18677161  0.15874578    -0.01300
C934        C  0.89973809  0.18554633  0.17925967    -0.09400
C935        C  0.91552348  0.19392342  0.18929766    -0.18200
C936        C  0.93034818  0.20429293  0.17918651     0.04200
C937        C  0.92877269  0.20569738  0.15844725     0.18400
C938        C  0.91315333  0.19666709  0.14848354    -0.19600
C939        C  0.94260719  0.21642307  0.14774533    -0.20900
C940        C  0.95778018  0.22616851  0.15722984    -0.19400
C941        C  0.95980882  0.22502651  0.17761292     0.19800
C942        C  0.94640524  0.21371219  0.18888648     0.01900
C943        C  0.94968722  0.21239106  0.20934187    -0.14200
C944        C  0.96527537  0.22232885  0.21821846    -0.11900
C945        C  0.97796673  0.23405510  0.20710778     0.01400
C946        C  0.97518527  0.23521730  0.18678150    -0.24100
H947        H  0.88836001  0.17851234  0.18778860     0.09400
H948        H  0.91538451  0.19251762  0.20503345     0.13000
H949        H  0.91258565  0.19749492  0.13262884     0.11700
H950        H  0.94147277  0.21759882  0.13193488     0.12900
H951        H  0.96803419  0.23464488  0.14853797     0.12000
H952        H  0.94054087  0.20372033  0.21886582     0.09000
H953        H  0.96717664  0.22109958  0.23394207     0.12300
H954        H  0.98511384  0.24400902  0.17801001     0.14200
C955        C  0.14295058  0.34588776  0.30610573    -0.01300
C956        C  0.12877898  0.35681126  0.29591103    -0.09400
C957        C  0.11299283  0.34765549  0.28663708    -0.18200
C958        C  0.11061620  0.32709950  0.28743084     0.04200
C959        C  0.12443152  0.31613756  0.29857056     0.18400
C960        C  0.14048529  0.32550275  0.30751399    -0.19600
C961        C  0.12219086  0.29585424  0.30067264    -0.20900
C962        C  0.10646618  0.28619973  0.29200739    -0.19400
C963        C  0.09289244  0.29649076  0.28055335     0.19800
C964        C  0.09496037  0.31703810  0.27775121     0.01900
C965        C  0.08147056  0.32650168  0.26510855    -0.14200
C966        C  0.06637252  0.31603586  0.25599596    -0.11900
C967        C  0.06399767  0.29593991  0.25942921     0.01400
C968        C  0.07734060  0.28627393  0.27171822    -0.24100
H969        H  0.12982460  0.37263187  0.29511942     0.09400
H970        H  0.10274002  0.35710579  0.27919814     0.13000
H971        H  0.15127183  0.31676608  0.31524570     0.11700
H972        H  0.13259024  0.28740613  0.30922716     0.12900
H973        H  0.10504887  0.27051020  0.29408520     0.12000
H974        H  0.08239336  0.34190211  0.26170840     0.09000
H975        H  0.05634638  0.32376954  0.24639794     0.12300
H976        H  0.07584983  0.27062466  0.27410521     0.14200
C977        C  0.24468253  0.30715750  0.43894683    -0.01300
C978        C  0.25552067  0.31885397  0.42603610    -0.09400
C979        C  0.24633856  0.32843345  0.41043568    -0.18200
C980        C  0.22587084  0.32671116  0.40739323     0.04200
C981        C  0.21483390  0.31577149  0.42127024     0.18400
C982        C  0.22430766  0.30593668  0.43665953    -0.19600
C983        C  0.19442149  0.31451715  0.41959364    -0.20900
C984        C  0.18469698  0.32361683  0.40416468    -0.19400
C985        C  0.19519954  0.33371764  0.38972884     0.19800
C986        C  0.21596195  0.33530494  0.39106078     0.01900
C987        C  0.22594955  0.34485790  0.37565763    -0.14200
C988        C  0.21576440  0.35246750  0.35965869    -0.11900
C989        C  0.19523791  0.35122395  0.35850349     0.01400
C990        C  0.18506264  0.34190004  0.37374223    -0.24100
H991        H  0.27126745  0.32018263  0.42767577     0.09400
H992        H  0.25564952  0.33708385  0.40105527     0.13000
H993        H  0.21577807  0.29724333  0.44688391     0.11700
H994        H  0.18591025  0.30638609  0.43026951     0.12900
H995        H  0.16887999  0.32234033  0.40326467     0.12000
H996        H  0.24168657  0.34617201  0.37522032     0.09000
H997        H  0.22416023  0.35900671  0.34787636     0.12300
H998        H  0.16921422  0.34089664  0.37315810     0.14200
C999        C  0.19397532  0.39910183  0.30304529    -0.01300
C1000       C  0.18305360  0.41097435  0.29025195    -0.09400
C1001       C  0.19188602  0.42633520  0.28000518    -0.18200
C1002       C  0.21198843  0.43072527  0.28255505     0.04200
C1003       C  0.22283633  0.41920592  0.29608676     0.18400
C1004       C  0.21397525  0.40335594  0.30569484    -0.19600
C1005       C  0.24251154  0.42354302  0.30000012    -0.20900
C1006       C  0.25174261  0.43907292  0.29062876    -0.19400
C1007       C  0.24168999  0.45026723  0.27669188     0.19800
C1008       C  0.22171602  0.44615132  0.27227978     0.01900
C1009       C  0.21250277  0.45740717  0.25751035    -0.14200
C1010       C  0.22270430  0.47208880  0.24759243    -0.11900
C1011       C  0.24230870  0.47621299  0.25216330     0.01400
C1012       C  0.25164777  0.46535047  0.26687225    -0.24100
H1013       H  0.16749128  0.40862161  0.28824021     0.09400
H1014       H  0.18246572  0.43475998  0.27052001     0.13000
H1015       H  0.22292078  0.39419425  0.31508681     0.11700
H1016       H  0.25079806  0.41492922  0.31048255     0.12900
H1017       H  0.26696515  0.44212122  0.29404795     0.12000
H1018       H  0.19755986  0.45497423  0.25298854     0.09000
H1019       H  0.21515494  0.48025394  0.23624514     0.12300
H1020       H  0.26688333  0.46829171  0.27036221     0.14200
C1021       C  0.24379080  0.30558257  0.52293663    -0.01300
C1022       C  0.24886736  0.32491701  0.52769727    -0.09400
C1023       C  0.23886041  0.33504811  0.54247954    -0.18200
C1024       C  0.22355832  0.32597719  0.55318481     0.04200
C1025       C  0.21879685  0.30623409  0.54847949     0.18400
C1026       C  0.22867188  0.29642127  0.53337932    -0.19600
C1027       C  0.20436799  0.29621636  0.55904268    -0.20900
C1028       C  0.19477649  0.30523496  0.57452680    -0.19400
C1029       C  0.19899096  0.32467321  0.57949543     0.19800
C1030       C  0.21306566  0.33553425  0.56863531     0.01900
C1031       C  0.21593975  0.35541840  0.57375941    -0.14200
C1032       C  0.20567345  0.36391108  0.58936613    -0.11900
C1033       C  0.19244481  0.35285479  0.60065325     0.01400
C1034       C  0.18923883  0.33319793  0.59544196    -0.24100
H1035       H  0.26054856  0.33230886  0.51988149     0.09400
H1036       H  0.24363330  0.34982235  0.54541224     0.13000
H1037       H  0.22477261  0.28138164  0.53000504     0.11700
H1038       H  0.20070397  0.28115959  0.55552214     0.12900
H1039       H  0.18391786  0.29694435  0.58264711     0.12000
H1040       H  0.22584895  0.36483832  0.56583415     0.09000
H1041       H  0.20813441  0.37926308  0.59251870     0.12300
H1042       H  0.17944112  0.32417671  0.60408683     0.14200
C1043       C  0.19270849  0.39860517  0.65862393    -0.01300
C1044       C  0.19193328  0.39855469  0.67917936    -0.09400
C1045       C  0.20031518  0.41373898  0.69006315    -0.18200
C1046       C  0.21000351  0.42949710  0.68070402     0.04200
C1047       C  0.21143923  0.42908207  0.65991388     0.18400
C1048       C  0.20261158  0.41393812  0.64914717    -0.19600
C1049       C  0.22171228  0.44377279  0.64994497    -0.20900
C1050       C  0.23077763  0.45884519  0.66020213    -0.19400
C1051       C  0.22928515  0.45992524  0.68062965     0.19800
C1052       C  0.21853020  0.44551332  0.69118172     0.01900
C1053       C  0.21661475  0.44792914  0.71170071    -0.14200
C1054       C  0.22550384  0.46366982  0.72133838    -0.11900
C1055       C  0.23676876  0.47731988  0.71093500     0.01400
C1056       C  0.23849922  0.47540211  0.69056665    -0.24100
H1057       H  0.18494277  0.38662217  0.68697119     0.09400
H1058       H  0.19924006  0.41256040  0.70578310     0.13000
H1059       H  0.20325406  0.41426574  0.63326720     0.11700
H1060       H  0.22294402  0.44348017  0.63410219     0.12900
H1061       H  0.23885486  0.46985492  0.65207190     0.12000
H1062       H  0.20820926  0.43801263  0.72067922     0.09000
H1063       H  0.22393653  0.46488809  0.73709763     0.12300
H1064       H  0.24698053  0.48607706  0.68238190     0.14200
C1065       C  0.34966509  0.19549564  0.59911844    -0.01300
C1066       C  0.32908039  0.19521536  0.59869091    -0.09400
C1067       C  0.31871549  0.20366997  0.58326506    -0.18200
C1068       C  0.32858017  0.21325375  0.56781501     0.04200
C1069       C  0.34939304  0.21422074  0.56860038     0.18400
C1070       C  0.35970589  0.20502693  0.58389338    -0.19600
C1071       C  0.35976465  0.22467932  0.55431577    -0.20900
C1072       C  0.34985165  0.23466772  0.53956038    -0.19400
C1073       C  0.32938297  0.23381964  0.53831528     0.19800
C1074       C  0.31849028  0.22251049  0.55200177     0.01900
C1075       C  0.29797833  0.22097701  0.54924952    -0.14200
C1076       C  0.28859529  0.23115540  0.53418331    -0.11900
C1077       C  0.29927620  0.24329881  0.52156963     0.01400
C1078       C  0.31969992  0.24433258  0.52351651    -0.24100
H1079       H  0.32077379  0.18875770  0.61057035     0.09400
H1080       H  0.30295625  0.20304974  0.58422712     0.13000
H1081       H  0.37559010  0.20537617  0.58390957     0.11700
H1082       H  0.37562573  0.22555203  0.55484240     0.12900
H1083       H  0.35825871  0.24307259  0.52901504     0.12000
H1084       H  0.28880860  0.21191889  0.55838718     0.09000
H1085       H  0.27282659  0.22989278  0.53270806     0.12300
H1086       H  0.32809871  0.25330339  0.51342391     0.14200
C1087       C  0.40436444  0.19617210  0.64911816    -0.01300
C1088       C  0.41858874  0.18475351  0.65866891    -0.09400
C1089       C  0.43416692  0.19346882  0.66864869    -0.18200
C1090       C  0.43630904  0.21405920  0.66913812     0.04200
C1091       C  0.42256825  0.22555130  0.65847955     0.18400
C1092       C  0.40667508  0.21661732  0.64891486    -0.19600
C1093       C  0.42465137  0.24593694  0.65756744    -0.20900
C1094       C  0.44008692  0.25520517  0.66710339    -0.19400
C1095       C  0.45345060  0.24437632  0.67829134     0.19800
C1096       C  0.45160095  0.22366241  0.67973537     0.01900
C1097       C  0.46483383  0.21355164  0.69211171    -0.14200
C1098       C  0.47931904  0.22360867  0.70248898    -0.11900
C1099       C  0.48131446  0.24394906  0.70065403     0.01400
C1100       C  0.46843673  0.25422171  0.68839077    -0.24100
H1101       H  0.41770527  0.16890860  0.65850435     0.09400
H1102       H  0.44442307  0.18367055  0.67561074     0.13000
H1103       H  0.39581657  0.22574858  0.64176846     0.11700
H1104       H  0.41431754  0.25477732  0.64933641     0.12900
H1105       H  0.44136019  0.27100692  0.66602412     0.12000
H1106       H  0.46408475  0.19795132  0.69446264     0.09000
H1107       H  0.48904378  0.21539249  0.71199764     0.12300
H1108       H  0.46967506  0.27002794  0.68719552     0.14200
C1109       C  0.19475049  0.13418429  0.15698580    -0.01300
C1110       C  0.21528823  0.13499751  0.15658492    -0.09400
C1111       C  0.22655806  0.12069145  0.16589133    -0.18200
C1112       C  0.21760109  0.10504603  0.17611392     0.04200
C1113       C  0.19676182  0.10453385  0.17686423     0.18400
C1114       C  0.18561084  0.11889522  0.16722002    -0.19600
C1115       C  0.18714107  0.08973996  0.18731287    -0.20900
C1116       C  0.19777548  0.07552118  0.19728477    -0.19400
C1117       C  0.21827861  0.07549316  0.19668091     0.19800
C1118       C  0.22852764  0.09002807  0.18579606     0.01900
C1119       C  0.24923334  0.08875492  0.18496820    -0.14200
C1120       C  0.25927101  0.07385235  0.19478719    -0.11900
C1121       C  0.24907765  0.06001179  0.20596691     0.01400
C1122       C  0.22860273  0.06091466  0.20687153    -0.24100
H1123       H  0.22274961  0.14693316  0.14923817     0.09400
H1124       H  0.24222948  0.12247755  0.16505807     0.13000
H1125       H  0.16973539  0.11807068  0.16755399     0.11700
H1126       H  0.17126678  0.08928553  0.18796017     0.12900
H1127       H  0.18989472  0.06438589  0.20543668     0.12000
H1128       H  0.25808354  0.09890049  0.17671290     0.09000
H1129       H  0.27512874  0.07336960  0.19393593     0.12300
H1130       H  0.22065776  0.05003455  0.21532391     0.14200
C1131       C  0.30723875  0.97827543  0.26780743    -0.01300
C1132       C  0.32744520  0.97542388  0.26567802    -0.09400
C1133       C  0.33723057  0.96126904  0.27682140    -0.18200
C1134       C  0.32693669  0.94921102  0.29022175     0.04200
C1135       C  0.30633619  0.95189045  0.29191406     0.18400
C1136       C  0.29681819  0.96653571  0.28106062    -0.19600
C1137       C  0.29525674  0.93966080  0.30410259    -0.20900
C1138       C  0.30410863  0.92433781  0.31418528    -0.19400
C1139       C  0.32434912  0.92127860  0.31282686     0.19800
C1140       C  0.33617038  0.93411285  0.30143837     0.01900
C1141       C  0.35666842  0.93111105  0.30164172    -0.14200
C1142       C  0.36487921  0.91514422  0.31148966    -0.11900
C1143       C  0.35299101  0.90148697  0.32128284     0.01400
C1144       C  0.33274654  0.90508878  0.32236638    -0.24100
H1145       H  0.33576856  0.98430640  0.25547643     0.09400
H1146       H  0.35275461  0.95978397  0.27427279     0.13000
H1147       H  0.28110094  0.96845196  0.28255992     0.11700
H1148       H  0.27954148  0.94162747  0.30543287     0.12900
H1149       H  0.29503733  0.91474704  0.32303328     0.12000
H1150       H  0.36673071  0.94083602  0.29429788     0.09000
H1151       H  0.38064220  0.91331870  0.31108733     0.12300
H1152       H  0.32325665  0.89477567  0.32984622     0.14200
C1153       C  0.47431870  0.79716275  0.25852734    -0.01300
C1154       C  0.46200518  0.81039922  0.24879073    -0.09400
C1155       C  0.44689698  0.81990547  0.25871072    -0.18200
C1156       C  0.44367790  0.81662166  0.27891596     0.04200
C1157       C  0.45662617  0.80368040  0.28891638     0.18400
C1158       C  0.47156271  0.79387504  0.27863122    -0.19600
C1159       C  0.45465477  0.80071169  0.30913028    -0.20900
C1160       C  0.44012372  0.81038838  0.31966204    -0.19400
C1161       C  0.42686671  0.82285248  0.31015051     0.19800
C1162       C  0.42823502  0.82588288  0.28958087     0.01900
C1163       C  0.41391338  0.83783177  0.28053999    -0.14200
C1164       C  0.39916783  0.84674003  0.29151663    -0.11900
C1165       C  0.39824733  0.84433222  0.31191361     0.01400
C1166       C  0.41217295  0.83225453  0.32109741    -0.24100
H1167       H  0.46388610  0.81327666  0.23328181     0.09400
H1168       H  0.43817186  0.82993065  0.25017146     0.13000
H1169       H  0.48122715  0.78387798  0.28634868     0.11700
H1170       H  0.46454024  0.79097697  0.31688670     0.12900
H1171       H  0.43911053  0.80793002  0.33533151     0.12000
H1172       H  0.41343584  0.84029029  0.26494372     0.09000
H1173       H  0.38826068  0.85537023  0.28385892     0.12300
H1174       H  0.41172197  0.83028148  0.33686296     0.14200
C1175       C  0.34920652  0.84349150  0.36684072    -0.01300
C1176       C  0.35964385  0.83013843  0.37852112    -0.09400
C1177       C  0.35022217  0.81922009  0.39305230    -0.18200
C1178       C  0.32994035  0.82149882  0.39665897     0.04200
C1179       C  0.31956582  0.83560673  0.38535428     0.18400
C1180       C  0.32911860  0.84614011  0.37047598    -0.19600
C1181       C  0.29968545  0.83916295  0.38895687    -0.20900
C1182       C  0.28988394  0.82913707  0.40372569    -0.19400
C1183       C  0.29957114  0.81490416  0.41488306     0.19800
C1184       C  0.31962888  0.81054289  0.41124651     0.01900
C1185       C  0.32838346  0.79528869  0.42224681    -0.14200
C1186       C  0.31782652  0.78528213  0.43666553    -0.11900
C1187       C  0.29829019  0.79019883  0.44072143     0.01400
C1188       C  0.28924040  0.80495054  0.42963886    -0.24100
H1189       H  0.37526318  0.82813329  0.37651902     0.09400
H1190       H  0.35929140  0.80936361  0.40143933     0.13000
H1191       H  0.32070770  0.85618855  0.36148637     0.11700
H1192       H  0.29170876  0.84996340  0.38044796     0.12900
H1193       H  0.27455687  0.83243022  0.40633089     0.12000
H1194       H  0.34329026  0.79060199  0.41991507     0.09000
H1195       H  0.32509963  0.77374891  0.44481383     0.12300
H1196       H  0.27400957  0.80860603  0.43236323     0.14200
C1197       C  0.19837682  0.89896002  0.16158467    -0.01300
C1198       C  0.19960898  0.89883150  0.18206860    -0.09400
C1199       C  0.20948693  0.91363617  0.19202616    -0.18200
C1200       C  0.21851737  0.92918221  0.18173624     0.04200
C1201       C  0.21790374  0.92884951  0.16089739     0.18400
C1202       C  0.20775490  0.91389834  0.15105138    -0.19600
C1203       C  0.22743882  0.94341649  0.15003663    -0.20900
C1204       C  0.23776325  0.95825596  0.15945673    -0.19400
C1205       C  0.23829618  0.95918844  0.17995184     0.19800
C1206       C  0.22829093  0.94491408  0.19138848     0.01900
C1207       C  0.22821486  0.94719218  0.21199616    -0.14200
C1208       C  0.23808526  0.96269086  0.22086433    -0.11900
C1209       C  0.24857508  0.97618720  0.20958127     0.01400
C1210       C  0.24864431  0.97441886  0.18913273    -0.24100
H1211       H  0.19300833  0.88707775  0.19047271     0.09400
H1212       H  0.21001335  0.91230613  0.20775544     0.13000
H1213       H  0.20694737  0.91401305  0.13517083     0.11700
H1214       H  0.22708599  0.94321179  0.13414822     0.12900
H1215       H  0.24520360  0.96919734  0.15065530     0.12000
H1216       H  0.22041261  0.93745948  0.22167861     0.09000
H1217       H  0.23778466  0.96393562  0.23670197     0.12300
H1218       H  0.25647138  0.98512581  0.18035718     0.14200
C1219       C  0.30724390  0.06307349  0.26221708    -0.01300
C1220       C  0.31656465  0.07674969  0.25013088    -0.09400
C1221       C  0.32495750  0.09357125  0.25804572    -0.18200
C1222       C  0.32450963  0.09704907  0.27846634     0.04200
C1223       C  0.31604213  0.08248619  0.29075840     0.18400
C1224       C  0.30712064  0.06589203  0.28252394    -0.19600
C1225       C  0.31655278  0.08458481  0.31115621    -0.20900
C1226       C  0.32529570  0.10091505  0.31963674    -0.19400
C1227       C  0.33303115  0.11585787  0.30789025     0.19800
C1228       C  0.33235807  0.11434015  0.28712533     0.01900
C1229       C  0.33919386  0.13036851  0.27591841    -0.14200
C1230       C  0.34696179  0.14692580  0.28497430    -0.11900
C1231       C  0.34838626  0.14802235  0.30543350     0.01400
C1232       C  0.34130902  0.13242002  0.31679988    -0.24100
H1233       H  0.31689266  0.07469544  0.23437782     0.09400
H1234       H  0.33188221  0.10342684  0.24782563     0.13000
H1235       H  0.30021234  0.05507059  0.29190974     0.11700
H1236       H  0.31032130  0.07343622  0.32061258     0.12900
H1237       H  0.32568336  0.10203728  0.33548568     0.12000
H1238       H  0.33831714  0.13077498  0.26014877     0.09000
H1239       H  0.35168333  0.15904619  0.27586649     0.12300
H1240       H  0.34235674  0.13307805  0.33264756     0.14200
C1241       C  0.39932306  0.20091437  0.30598189    -0.01300
C1242       C  0.40121385  0.22137234  0.30634494    -0.09400
C1243       C  0.41691025  0.23065994  0.29710590    -0.18200
C1244       C  0.43121531  0.21976811  0.28679079     0.04200
C1245       C  0.42907629  0.19907221  0.28606903     0.18400
C1246       C  0.41353860  0.18987250  0.29595099    -0.19600
C1247       C  0.44230145  0.18768466  0.27526405    -0.20900
C1248       C  0.45753717  0.19646126  0.26494002    -0.19400
C1249       C  0.46027105  0.21677970  0.26565017     0.19800
C1250       C  0.44737009  0.22868725  0.27691871     0.01900
C1251       C  0.45133118  0.24898909  0.27799699    -0.14200
C1252       C  0.46723129  0.25711930  0.26810419    -0.11900
C1253       C  0.47957375  0.24544715  0.25659910     0.01400
C1254       C  0.47597595  0.22527322  0.25533346    -0.24100
H1255       H  0.39024526  0.23040173  0.31340809     0.09400
H1256       H  0.41708762  0.24642557  0.29785979     0.13000
H1257       H  0.41253393  0.17402368  0.29572446     0.11700
H1258       H  0.44068173  0.17189446  0.27455767     0.12900
H1259       H  0.46737228  0.18726861  0.25650633     0.12000
H1260       H  0.44264718  0.25895900  0.28661471     0.09000
H1261       H  0.46977118  0.27275054  0.26933892     0.12300
H1262       H  0.48567159  0.21611936  0.24668347     0.14200
C1263       C  0.34760576  0.19853692  0.35869168    -0.01300
C1264       C  0.35906438  0.20657049  0.37373448    -0.09400
C1265       C  0.35034464  0.21517336  0.39011255    -0.18200
C1266       C  0.32971034  0.21593638  0.39207050     0.04200
C1267       C  0.31815136  0.20703158  0.37719631     0.18400
C1268       C  0.32710857  0.19872812  0.36065296    -0.19600
C1269       C  0.29769461  0.20661255  0.37881265    -0.20900
C1270       C  0.28839612  0.21513183  0.39480573    -0.19400
C1271       C  0.29930037  0.22471701  0.40930541     0.19800
C1272       C  0.32012359  0.22534938  0.40811973     0.01900
C1273       C  0.33038707  0.23590715  0.42272284    -0.14200
C1274       C  0.32036831  0.24570417  0.43760055    -0.11900
C1275       C  0.29989482  0.24499670  0.43869630     0.01400
C1276       C  0.28945309  0.23416394  0.42472098    -0.24100
H1277       H  0.37491538  0.20610682  0.37293958     0.09400
H1278       H  0.36017928  0.22093308  0.40104894     0.13000
H1279       H  0.31799865  0.19273958  0.34908673     0.11700
H1280       H  0.28881269  0.19967271  0.36760384     0.12900
H1281       H  0.27253120  0.21460814  0.39560645     0.12000
H1282       H  0.34611412  0.23733784  0.42278629     0.09000
H1283       H  0.32872075  0.25391853  0.44833431     0.12300
H1284       H  0.27357083  0.23371638  0.42541001     0.14200
C1285       C  0.63802354  0.18644962  0.30934426    -0.01300
C1286       C  0.63730720  0.18567188  0.28880717    -0.09400
C1287       C  0.62249335  0.19510376  0.27838783    -0.18200
C1288       C  0.60790835  0.20610018  0.28813436     0.04200
C1289       C  0.60875149  0.20716636  0.30893057     0.18400
C1290       C  0.62349817  0.19712938  0.31931149    -0.19600
C1291       C  0.59512188  0.21858559  0.31919235    -0.20900
C1292       C  0.58100793  0.22943080  0.30918458    -0.19400
C1293       C  0.57982429  0.22869697  0.28869877     0.19800
C1294       C  0.59290101  0.21654651  0.27793073     0.01900
C1295       C  0.59041841  0.21541221  0.25738581    -0.14200
C1296       C  0.57607803  0.22642081  0.24788857    -0.11900
C1297       C  0.56382131  0.23906392  0.25840862     0.01400
C1298       C  0.56566713  0.24006107  0.27886251    -0.24100
H1299       H  0.64860201  0.17817664  0.28056254     0.09400
H1300       H  0.62329656  0.19401313  0.26265621     0.13000
H1301       H  0.62373724  0.19780776  0.33518624     0.11700
H1302       H  0.59565581  0.21948609  0.33505034     0.12900
H1303       H  0.57094891  0.23845975  0.31752939     0.12000
H1304       H  0.59919065  0.20603267  0.24820865     0.09000
H1305       H  0.57480301  0.22525042  0.23209499     0.12300
H1306       H  0.55594033  0.24951870  0.28714162     0.14200
C1307       C  0.69015170  0.18852918  0.36155616    -0.01300
C1308       C  0.69886412  0.17819439  0.37707027    -0.09400
C1309       C  0.70973722  0.18793499  0.39142733    -0.18200
C1310       C  0.71207758  0.20851842  0.39088391     0.04200
C1311       C  0.70278925  0.21898297  0.37541548     0.18400
C1312       C  0.69223526  0.20896181  0.36088087    -0.19600
C1313       C  0.70398253  0.23943407  0.37455957    -0.20900
C1314       C  0.71379381  0.24982530  0.38905180    -0.19400
C1315       C  0.72313509  0.23998008  0.40443263     0.19800
C1316       C  0.72293599  0.21915525  0.40530276     0.01900
C1317       C  0.73366737  0.20996418  0.42052648    -0.14200
C1318       C  0.74355054  0.22105881  0.43464578    -0.11900
C1319       C  0.74277296  0.24154936  0.43421220     0.01400
C1320       C  0.73268189  0.25090279  0.41898950    -0.24100
H1321       H  0.69721720  0.16244455  0.37818850     0.09400
H1322       H  0.71583340  0.17898589  0.40293808     0.13000
H1323       H  0.68588707  0.21713838  0.34881552     0.11700
H1324       H  0.69695886  0.24748628  0.36278775     0.12900
H1325       H  0.71411865  0.26568904  0.38819452     0.12000
H1326       H  0.73483663  0.19426408  0.42182080     0.09000
H1327       H  0.75149994  0.21357553  0.44619148     0.12300
H1328       H  0.73246302  0.26679142  0.41834433     0.14200
C1329       C  0.34690054  0.63781204  0.14209553    -0.01300
C1330       C  0.32649525  0.63553520  0.14064704    -0.09400
C1331       C  0.31701502  0.61962612  0.14910975    -0.18200
C1332       C  0.32751084  0.60549163  0.15996497     0.04200
C1333       C  0.34813809  0.60782423  0.16174613     0.18400
C1334       C  0.35767401  0.62359114  0.15245089    -0.19600
C1335       C  0.35899490  0.59474740  0.17328992    -0.20900
C1336       C  0.34967554  0.57977974  0.18359693    -0.19400
C1337       C  0.32936274  0.57713328  0.18209314     0.19800
C1338       C  0.31811030  0.58958547  0.16972710     0.01900
C1339       C  0.29786932  0.58566038  0.16773152    -0.14200
C1340       C  0.28901919  0.57060166  0.17822419    -0.11900
C1341       C  0.29991419  0.55894245  0.19112187     0.01400
C1342       C  0.32015722  0.56215640  0.19289812    -0.24100
H1343       H  0.31748603  0.64650199  0.13355146     0.09400
H1344       H  0.30129901  0.61935972  0.14758470     0.13000
H1345       H  0.37345584  0.62492654  0.15365175     0.11700
H1346       H  0.37472886  0.59642764  0.17478269     0.12900
H1347       H  0.35841298  0.57021219  0.19280344     0.12000
H1348       H  0.28843556  0.59381815  0.15803925     0.09000
H1349       H  0.27340681  0.56827977  0.17640603     0.12300
H1350       H  0.32876674  0.55291141  0.20255752     0.14200
C1351       C  0.47334450  0.74047104  0.19898213    -0.01300
C1352       C  0.46180556  0.72686014  0.20911858    -0.09400
C1353       C  0.44632800  0.71729874  0.19982977    -0.18200
C1354       C  0.44198073  0.72092251  0.17989103     0.04200
C1355       C  0.45424958  0.73413753  0.16942861     0.18400
C1356       C  0.46953067  0.74400807  0.17909635    -0.19600
C1357       C  0.45127231  0.73729824  0.14936665    -0.20900
C1358       C  0.43641858  0.72748350  0.13942067    -0.19400
C1359       C  0.42376870  0.71479940  0.14944159     0.19800
C1360       C  0.42608602  0.71169224  0.16991085     0.01900
C1361       C  0.41218529  0.69975547  0.17957470    -0.14200
C1362       C  0.39697289  0.69084808  0.16924811    -0.11900
C1363       C  0.39519205  0.69321479  0.14890269     0.01400
C1364       C  0.40869324  0.70530404  0.13912532    -0.24100
H1365       H  0.46457167  0.72374921  0.22445149     0.09400
H1366       H  0.43824934  0.70693322  0.20859120     0.13000
H1367       H  0.47863793  0.75426251  0.17105313     0.11700
H1368       H  0.46064804  0.74724410  0.14126100     0.12900
H1369       H  0.43464341  0.73004094  0.12383340     0.12000
H1370       H  0.41235156  0.69739774  0.19519443     0.09000
H1371       H  0.38636264  0.68231044  0.17739571     0.12300
H1372       H  0.40756125  0.70729620  0.12339727     0.14200
C1373       C  0.64935219  0.34357102  0.15253870    -0.01300
C1374       C  0.64910676  0.34284885  0.17307081    -0.09400
C1375       C  0.63353069  0.33427687  0.18309890    -0.18200
C1376       C  0.61758585  0.32588236  0.17287481     0.04200
C1377       C  0.61817706  0.32597087  0.15203236     0.18400
C1378       C  0.63385503  0.33495186  0.14209324    -0.19600
C1379       C  0.60317811  0.31698734  0.14126371    -0.20900
C1380       C  0.58775739  0.30759908  0.15077196    -0.19400
C1381       C  0.58664122  0.30748661  0.17127180     0.19800
C1382       C  0.60127505  0.31709669  0.18260385     0.01900
C1383       C  0.59883426  0.31767835  0.20318555    -0.14200
C1384       C  0.58288303  0.30858083  0.21214041    -0.11900
C1385       C  0.56899833  0.29838059  0.20100426     0.01400
C1386       C  0.57090890  0.29791517  0.18055009    -0.24100
H1387       H  0.66117976  0.34879347  0.18151154     0.09400
H1388       H  0.63462868  0.33412239  0.19885433     0.13000
H1389       H  0.63388564  0.33539052  0.12620314     0.11700
H1390       H  0.60353120  0.31695724  0.12537522     0.12900
H1391       H  0.57654508  0.30049986  0.14202373     0.12000
H1392       H  0.60882104  0.32528144  0.21277585     0.09000
H1393       H  0.58157574  0.30927809  0.22795848     0.12300
H1394       H  0.55994491  0.29038473  0.17183060     0.14200
C1395       C  0.69792920  0.39841479  0.14948098    -0.01300
C1396       C  0.68553384  0.41210795  0.15856095    -0.09400
C1397       C  0.69313119  0.42858993  0.16797628    -0.18200
C1398       C  0.71350919  0.43221923  0.16830545     0.04200
C1399       C  0.72594198  0.41897969  0.15808860     0.18400
C1400       C  0.71816767  0.40213542  0.14919104    -0.19600
C1401       C  0.74609844  0.42257660  0.15686095    -0.20900
C1402       C  0.75420621  0.43907650  0.16559887    -0.19400
C1403       C  0.74246653  0.45196425  0.17639623     0.19800
C1404       C  0.72199732  0.44855992  0.17825270     0.01900
C1405       C  0.71106244  0.46136400  0.19039246    -0.14200
C1406       C  0.72011370  0.47697257  0.20010297    -0.11900
C1407       C  0.74017512  0.48052034  0.19770575     0.01400
C1408       C  0.75120862  0.46803860  0.18571298    -0.24100
H1409       H  0.66978222  0.41015171  0.15839473     0.09400
H1410       H  0.68264917  0.43840446  0.17456133     0.13000
H1411       H  0.72804465  0.39173176  0.14238471     0.11700
H1412       H  0.75564169  0.41264442  0.14894417     0.12900
H1413       H  0.76984762  0.44155490  0.16424161     0.12000
H1414       H  0.69561503  0.45939775  0.19307880     0.09000
H1415       H  0.71136537  0.48634938  0.20946467     0.12300
H1416       H  0.76684971  0.47045839  0.18413337     0.14200
C1417       C  0.80426596  0.23659568  0.02177376    -0.01300
C1418       C  0.81351692  0.24823729  0.03591315    -0.09400
C1419       C  0.82236819  0.23979753  0.05230679    -0.18200
C1420       C  0.82257688  0.21923810  0.05491292     0.04200
C1421       C  0.81378130  0.20743562  0.04011238     0.18400
C1422       C  0.80436525  0.21618897  0.02396821    -0.19600
C1423       C  0.81455429  0.18698169  0.04146104    -0.20900
C1424       C  0.82386343  0.17796319  0.05721177    -0.19400
C1425       C  0.83210465  0.18916320  0.07231596     0.19800
C1426       C  0.83135075  0.20996668  0.07154343     0.01900
C1427       C  0.83914318  0.22054926  0.08759703    -0.14200
C1428       C  0.84746523  0.21086916  0.10361053    -0.11900
C1429       C  0.84849389  0.19035539  0.10418126     0.01400
C1430       C  0.84087233  0.17963254  0.08834432    -0.24100
H1431       H  0.81355409  0.26405955  0.03449497     0.09400
H1432       H  0.82913957  0.24975951  0.06252301     0.13000
H1433       H  0.79739286  0.20711745  0.01292313     0.11700
H1434       H  0.80805401  0.17788599  0.03016553     0.12900
H1435       H  0.82434112  0.16209022  0.05773893     0.12000
H1436       H  0.83862361  0.23630798  0.08845683     0.09000
H1437       H  0.85273879  0.21953818  0.11582360     0.12300
H1438       H  0.84168847  0.16376340  0.08850214     0.14200
C1439       C  0.74792514  0.29459007  0.02087802    -0.01300
C1440       C  0.74916848  0.31504958  0.02173435    -0.09400
C1441       C  0.73983569  0.32545433  0.03669812    -0.18200
C1442       C  0.72925964  0.31557452  0.05156898     0.04200
C1443       C  0.72854790  0.29474401  0.05083929     0.18400
C1444       C  0.73748005  0.28454577  0.03538839    -0.19600
C1445       C  0.71918020  0.28415759  0.06568855    -0.20900
C1446       C  0.71057352  0.29380098  0.08139991    -0.19400
C1447       C  0.71060406  0.31428799  0.08234183     0.19800
C1448       C  0.71963381  0.32552023  0.06729354     0.01900
C1449       C  0.71844739  0.34617531  0.06859249    -0.14200
C1450       C  0.70890659  0.35522964  0.08429084    -0.11900
C1451       C  0.70046837  0.34409561  0.09939916     0.01400
C1452       C  0.70153275  0.32357893  0.09827705    -0.24100
H1453       H  0.75726412  0.32306672  0.01066561     0.09400
H1454       H  0.74148465  0.34116116  0.03643030     0.13000
H1455       H  0.73677897  0.26866497  0.03495787     0.11700
H1456       H  0.71872025  0.26827953  0.06527971     0.12900
H1457       H  0.70363180  0.28516438  0.09279275     0.12000
H1458       H  0.72440457  0.35573934  0.05751805     0.09000
H1459       H  0.70795079  0.37106860  0.08441585     0.12300
H1460       H  0.69544264  0.31469359  0.10995443     0.14200
C1461       C  0.69425114  0.34670413  0.86365956    -0.01300
C1462       C  0.70401766  0.35735908  0.87825049    -0.09400
C1463       C  0.71385476  0.34776028  0.89342952    -0.18200
C1464       C  0.71422768  0.32704522  0.89450129     0.04200
C1465       C  0.70377999  0.31633941  0.87999054     0.18400
C1466       C  0.69415609  0.32617373  0.86471240    -0.19600
C1467       C  0.70303368  0.29585483  0.88074075    -0.20900
C1468       C  0.71248333  0.28568679  0.89564511    -0.19400
C1469       C  0.72334126  0.29572933  0.90985430     0.19800
C1470       C  0.72459449  0.31655196  0.90937200     0.01900
C1471       C  0.73655214  0.32589222  0.92351181    -0.14200
C1472       C  0.74685009  0.31499320  0.93742868    -0.11900
C1473       C  0.74525188  0.29455277  0.93800623     0.01400
C1474       C  0.73329673  0.28501074  0.92434174    -0.24100
H1475       H  0.70394241  0.37323550  0.87801330     0.09400
H1476       H  0.72085837  0.35697435  0.90417961     0.13000
H1477       H  0.68679410  0.31775487  0.85340997     0.11700
H1478       H  0.69500106  0.28763202  0.86976232     0.12900
H1479       H  0.71155964  0.26982553  0.89586959     0.12000
H1480       H  0.73860316  0.34154334  0.92395695     0.09000
H1481       H  0.75601972  0.32262611  0.94792438     0.12300
H1482       H  0.73223731  0.26914711  0.92461153     0.14200
C1483       C  0.63920768  0.34949363  0.81504957    -0.01300
C1484       C  0.62535151  0.36109638  0.80519792    -0.09400
C1485       C  0.60912663  0.35263939  0.79600491    -0.18200
C1486       C  0.60595714  0.33217206  0.79662957     0.04200
C1487       C  0.61926179  0.32059942  0.80770734     0.18400
C1488       C  0.63583466  0.32919419  0.81634830    -0.19600
C1489       C  0.61611709  0.30043879  0.80988755    -0.20900
C1490       C  0.60024440  0.29140276  0.80086470    -0.19400
C1491       C  0.58754088  0.30218864  0.78889229     0.19800
C1492       C  0.59022603  0.32273034  0.78652609     0.01900
C1493       C  0.57752941  0.33275891  0.77354437    -0.14200
C1494       C  0.56308069  0.32272167  0.76308294    -0.11900
C1495       C  0.56053934  0.30249225  0.76546005     0.01400
C1496       C  0.57256260  0.29239850  0.77872335    -0.24100
H1497       H  0.62694325  0.37686518  0.80456033     0.09400
H1498       H  0.59920607  0.36254902  0.78871973     0.13000
H1499       H  0.64636700  0.31982141  0.82366158     0.11700
H1500       H  0.62604909  0.29157642  0.81857865     0.12900
H1501       H  0.59825533  0.27575222  0.80276699     0.12000
H1502       H  0.57879670  0.34823525  0.77065575     0.09000
H1503       H  0.55392120  0.33085301  0.75296273     0.12300
H1504       H  0.57080606  0.27670224  0.78054250     0.14200
C1505       C  0.69359102  0.39972392  0.81257230    -0.01300
C1506       C  0.70424977  0.41320209  0.82390915    -0.09400
C1507       C  0.71387071  0.42903611  0.81521768    -0.18200
C1508       C  0.71292085  0.43217895  0.79476020     0.04200
C1509       C  0.70127396  0.41913016  0.78343022     0.18400
C1510       C  0.69212431  0.40294904  0.79227983    -0.19600
C1511       C  0.69886011  0.42225359  0.76329047    -0.20900
C1512       C  0.70786460  0.43804660  0.75410444    -0.19400
C1513       C  0.72003604  0.45071402  0.76470388     0.19800
C1514       C  0.72300787  0.44781425  0.78513726     0.01900
C1515       C  0.73631124  0.46039569  0.79490727    -0.14200
C1516       C  0.74607001  0.47530524  0.78481472    -0.11900
C1517       C  0.74265594  0.47838914  0.76481178     0.01400
C1518       C  0.72952650  0.46609787  0.75488061    -0.24100
H1519       H  0.70510325  0.41162155  0.83968318     0.09400
H1520       H  0.72166066  0.43874305  0.82495300     0.13000
H1521       H  0.68413554  0.39268229  0.78317001     0.11700
H1522       H  0.68983673  0.41247759  0.75459367     0.12900
H1523       H  0.70559495  0.44014192  0.73851141     0.12000
H1524       H  0.73980411  0.45883338  0.81023954     0.09000
H1525       H  0.75620641  0.48459875  0.79276794     0.12300
H1526       H  0.72703472  0.46821328  0.73931382     0.14200
C1527       C  0.84880646  0.18555066  0.85586184    -0.01300
C1528       C  0.82825138  0.18584425  0.85682408    -0.09400
C1529       C  0.81853841  0.19506575  0.87226700    -0.18200
C1530       C  0.82907064  0.20475421  0.88724977     0.04200
C1531       C  0.84986236  0.20504248  0.88594239     0.18400
C1532       C  0.85948519  0.19512957  0.87066052    -0.19600
C1533       C  0.86092988  0.21546123  0.89974476    -0.20900
C1534       C  0.85176175  0.22577242  0.91475084    -0.19400
C1535       C  0.83134319  0.22533664  0.91675064     0.19800
C1536       C  0.81971940  0.21445117  0.90327896     0.01900
C1537       C  0.79927826  0.21351458  0.90661946    -0.14200
C1538       C  0.79075056  0.22326782  0.92243719    -0.11900
C1539       C  0.80217595  0.23452630  0.93525507     0.01400
C1540       C  0.82247449  0.23556105  0.93229103    -0.24100
H1541       H  0.81948150  0.17930880  0.84531982     0.09400
H1542       H  0.80275011  0.19484780  0.87172654     0.13000
H1543       H  0.87536713  0.19498811  0.87030985     0.11700
H1544       H  0.87678593  0.21588978  0.89875321     0.12900
H1545       H  0.86073163  0.23392822  0.92502956     0.12000
H1546       H  0.78951674  0.20508521  0.89749322     0.09000
H1547       H  0.77502987  0.22222036  0.92447353     0.12300
H1548       H  0.83143521  0.24402650  0.94233850     0.14200
C1549       C  0.06095242  0.24435236  0.75278772    -0.01300
C1550       C  0.06342504  0.24664209  0.77304479    -0.09400
C1551       C  0.07852885  0.23693443  0.78296152    -0.18200
C1552       C  0.09195424  0.22480462  0.77280227     0.04200
C1553       C  0.08983786  0.22317651  0.75212430     0.18400
C1554       C  0.07425133  0.23258874  0.74242477    -0.19600
C1555       C  0.10341327  0.21232598  0.74121463    -0.20900
C1556       C  0.11920785  0.20320730  0.75037240    -0.19400
C1557       C  0.12148808  0.20415226  0.77075911     0.19800
C1558       C  0.10761770  0.21455397  0.78231994     0.01900
C1559       C  0.10993975  0.21405974  0.80290300    -0.14200
C1560       C  0.12576176  0.20432393  0.81155855    -0.11900
C1561       C  0.14007649  0.19492746  0.80011991     0.01400
C1562       C  0.13761886  0.19477977  0.77963949    -0.24100
H1563       H  0.05343964  0.25577772  0.78134820     0.09400
H1564       H  0.07952172  0.23948313  0.79852467     0.13000
H1565       H  0.07268411  0.23103950  0.72667518     0.11700
H1566       H  0.10197246  0.21112075  0.72543219     0.12900
H1567       H  0.12962524  0.19519541  0.74144809     0.12000
H1568       H  0.09958760  0.22080605  0.81274419     0.09000
H1569       H  0.12669491  0.20412079  0.82740483     0.12300
H1570       H  0.14845839  0.18769520  0.77045494     0.14200
C1571       C  0.05671710  0.30163950  0.69379019    -0.01300
C1572       C  0.06795093  0.29167379  0.67980003    -0.09400
C1573       C  0.08345637  0.30093940  0.67026429    -0.18200
C1574       C  0.08822147  0.32068703  0.67432098     0.04200
C1575       C  0.07606940  0.33112423  0.68765149     0.18400
C1576       C  0.06067348  0.32148925  0.69744876    -0.19600
C1577       C  0.07948059  0.35104942  0.69121266    -0.20900
C1578       C  0.09487368  0.36077422  0.68198660    -0.19400
C1579       C  0.10762994  0.35066537  0.66947335     0.19800
C1580       C  0.10461617  0.33041101  0.66566009     0.01900
C1581       C  0.11850576  0.32059913  0.65385497    -0.14200
C1582       C  0.13464982  0.33046200  0.64615375    -0.11900
C1583       C  0.13745906  0.35055669  0.64953787     0.01400
C1584       C  0.12366093  0.36059173  0.66110031    -0.24100
H1585       H  0.06507357  0.27640571  0.67651427     0.09400
H1586       H  0.09136366  0.29224519  0.65971803     0.13000
H1587       H  0.05180240  0.32944037  0.70796898     0.11700
H1588       H  0.07016517  0.35917842  0.70118703     0.12900
H1589       H  0.09709648  0.37620850  0.68503193     0.12000
H1590       H  0.11772245  0.30511547  0.65085087     0.09000
H1591       H  0.14530170  0.32204865  0.63793470     0.12300
H1592       H  0.12544812  0.37613784  0.66380615     0.14200
C1593       C  0.97710136  0.23983813  0.75527203    -0.01300
C1594       C  0.97573324  0.21953172  0.75254502    -0.09400
C1595       C  0.96164860  0.20851618  0.76250884    -0.18200
C1596       C  0.94814231  0.21757870  0.77535098     0.04200
C1597       C  0.94940509  0.23825621  0.77781138     0.18400
C1598       C  0.96401372  0.24907262  0.76811503    -0.19600
C1599       C  0.93580078  0.24809475  0.78958067    -0.20900
C1600       C  0.92064671  0.23791004  0.79860454    -0.19400
C1601       C  0.91907569  0.21755223  0.79657994     0.19800
C1602       C  0.93309948  0.20699143  0.78540053     0.01900
C1603       C  0.93138906  0.18633313  0.78476894    -0.14200
C1604       C  0.91599973  0.17669179  0.79426915    -0.11900
C1605       C  0.90160359  0.18724385  0.80449558     0.01400
C1606       C  0.90340363  0.20774121  0.80558583    -0.24100
H1607       H  0.98565465  0.21207074  0.74264442     0.09400
H1608       H  0.96140419  0.19301800  0.75947444     0.13000
H1609       H  0.96478245  0.26482963  0.77008232     0.11700
H1610       H  0.93663491  0.26384720  0.79148388     0.12900
H1611       H  0.91009945  0.24602209  0.80728590     0.12000
H1612       H  0.94185660  0.17718618  0.77727068     0.09000
H1613       H  0.91547153  0.16084583  0.79362744     0.12300
H1614       H  0.89233784  0.21629482  0.81309358     0.14200
C1615       C  0.89195228  0.34754949  0.65145224    -0.01300
C1616       C  0.89278193  0.32702310  0.65057434    -0.09400
C1617       C  0.90832909  0.31673922  0.65900747    -0.18200
C1618       C  0.92358553  0.32666403  0.66892495     0.04200
C1619       C  0.92240638  0.34742845  0.67031508     0.18400
C1620       C  0.90687522  0.35762070  0.66141960    -0.19600
C1621       C  0.93668822  0.35791899  0.68066223    -0.20900
C1622       C  0.95204185  0.34820400  0.68989312    -0.19400
C1623       C  0.95377116  0.32780536  0.68858624     0.19800
C1624       C  0.93980160  0.31674485  0.67775263     0.01900
C1625       C  0.94280051  0.29627918  0.67611364    -0.14200
C1626       C  0.95874743  0.28719055  0.68521023    -0.11900
C1627       C  0.97203494  0.29808431  0.69643565     0.01400
C1628       C  0.96947248  0.31839857  0.69802509    -0.24100
H1629       H  0.88120161  0.31874759  0.64354138     0.09400
H1630       H  0.90777232  0.30100240  0.65782157     0.13000
H1631       H  0.90653262  0.37349232  0.66212862     0.11700
H1632       H  0.93584854  0.37374266  0.68183077     0.12900
H1633       H  0.96272460  0.35672950  0.69800791     0.12000
H1634       H  0.93322242  0.28691227  0.66774288     0.09000
H1635       H  0.96049666  0.27147670  0.68372416     0.12300
H1636       H  0.97989957  0.32696645  0.70644182     0.14200
C1637       C  0.84211666  0.35347013  0.59751291    -0.01300
C1638       C  0.82167620  0.35477423  0.59553280    -0.09400
C1639       C  0.81205840  0.34629768  0.57961324    -0.18200
C1640       C  0.82256690  0.33585337  0.56514953     0.04200
C1641       C  0.84324125  0.33426332  0.56734647     0.18400
C1642       C  0.85279597  0.34332130  0.58317231    -0.19600
C1643       C  0.85425074  0.32335277  0.55392058    -0.20900
C1644       C  0.84512310  0.31368324  0.53848959    -0.19400
C1645       C  0.82483359  0.31512149  0.53580903     0.19800
C1646       C  0.81328621  0.32658146  0.54883255     0.01900
C1647       C  0.79297839  0.32826561  0.54490325    -0.14200
C1648       C  0.78446517  0.31851002  0.52906060    -0.11900
C1649       C  0.79580477  0.30661205  0.51679957     0.01400
C1650       C  0.81600015  0.30507895  0.52017833    -0.24100
H1651       H  0.81290479  0.36196787  0.60663249     0.09400
H1652       H  0.79632829  0.34772472  0.57936869     0.13000
H1653       H  0.86861103  0.34231397  0.58435766     0.11700
H1654       H  0.87000412  0.32200942  0.55555617     0.12900
H1655       H  0.85401547  0.30507368  0.52853014     0.12000
H1656       H  0.78328464  0.33708605  0.55370871     0.09000
H1657       H  0.76881696  0.31990539  0.52669010     0.12300
H1658       H  0.82489303  0.29607239  0.51055900     0.14200
C1659       C  0.84259990  0.40245603  0.65202596    -0.01300
C1660       C  0.82234417  0.40549423  0.65009112    -0.09400
C1661       C  0.81308825  0.42105003  0.65947711    -0.18200
C1662       C  0.82371622  0.43404075  0.67159050     0.04200
C1663       C  0.84411215  0.43060926  0.67412717     0.18400
C1664       C  0.85339739  0.41520125  0.66408288    -0.19600
C1665       C  0.85504044  0.44239169  0.68690830    -0.20900
C1666       C  0.84604602  0.45732676  0.69748745    -0.19400
C1667       C  0.82604447  0.46125314  0.69504884     0.19800
C1668       C  0.81471236  0.44998591  0.68166141     0.01900
C1669       C  0.79486342  0.45522674  0.67885326    -0.14200
C1670       C  0.78644187  0.47048497  0.68944722    -0.11900
C1671       C  0.79739795  0.48097881  0.70327161     0.01400
C1672       C  0.81726221  0.47638972  0.70591467    -0.24100
H1673       H  0.81337339  0.39553348  0.64158980     0.09400
H1674       H  0.79746191  0.42210669  0.65741176     0.13000
H1675       H  0.86906797  0.41314963  0.66573302     0.11700
H1676       H  0.87058082  0.43980587  0.68901409     0.12900
H1677       H  0.85482389  0.46595046  0.70754701     0.12000
H1678       H  0.78546591  0.44797144  0.66843074     0.09000
H1679       H  0.77110617  0.47384240  0.68700965     0.12300
H1680       H  0.82593239  0.48467392  0.71635879     0.14200
C1681       C  0.23429240  0.80336414  0.02379962    -0.01300
C1682       C  0.23740481  0.82342267  0.02660740    -0.09400
C1683       C  0.22955405  0.83302005  0.04282153    -0.18200
C1684       C  0.21847793  0.82271431  0.05700014     0.04200
C1685       C  0.21573970  0.80222599  0.05430862     0.18400
C1686       C  0.22334428  0.79284083  0.03764139    -0.19600
C1687       C  0.20570512  0.79119264  0.06840904    -0.20900
C1688       C  0.19827685  0.80009711  0.08516760    -0.19400
C1689       C  0.20030907  0.82031793  0.08799791     0.19800
C1690       C  0.21024426  0.83195749  0.07384565     0.01900
C1691       C  0.21130520  0.85239171  0.07705360    -0.14200
C1692       C  0.20305826  0.86085329  0.09368262    -0.11900
C1693       C  0.19364621  0.84932343  0.10782966     0.01400
C1694       C  0.19235447  0.82900867  0.10487279    -0.24100
H1695       H  0.24602002  0.83177373  0.01619680     0.09400
H1696       H  0.23277434  0.84842917  0.04398921     0.13000
H1697       H  0.22128886  0.77718621  0.03577088     0.11700
H1698       H  0.20372451  0.77553897  0.06653901     0.12900
H1699       H  0.19069442  0.79113873  0.09588271     0.12000
H1700       H  0.21807359  0.86234124  0.06683344     0.09000
H1701       H  0.20385286  0.87662529  0.09532394     0.12300
H1702       H  0.18529829  0.81987301  0.11579466     0.14200
C1703       C  0.29040217  0.74533252  0.02279330    -0.01300
C1704       C  0.27995776  0.73377217  0.03610814    -0.09400
C1705       C  0.28963394  0.72403899  0.05125631    -0.18200
C1706       C  0.31024046  0.72534464  0.05334746     0.04200
C1707       C  0.32078893  0.73675541  0.03945429     0.18400
C1708       C  0.31079542  0.74683900  0.02457155    -0.19600
C1709       C  0.34125708  0.73788533  0.04036726    -0.20900
C1710       C  0.35156329  0.72776473  0.05474084    -0.19400
C1711       C  0.34161801  0.71659396  0.06877498     0.19800
C1712       C  0.32078434  0.71547998  0.06848337     0.01900
C1713       C  0.31141922  0.70456417  0.08338537    -0.14200
C1714       C  0.32229424  0.69464743  0.09752611    -0.11900
C1715       C  0.34282374  0.69523462  0.09736965     0.01400
C1716       C  0.35240232  0.70645566  0.08309422    -0.24100
H1717       H  0.26416308  0.73246396  0.03497159     0.09400
H1718       H  0.28057325  0.71540645  0.06088588     0.13000
H1719       H  0.31895225  0.75560744  0.01410713     0.11700
H1720       H  0.34937287  0.74648810  0.02975242     0.12900
H1721       H  0.36742648  0.72874075  0.05492400     0.12000
H1722       H  0.29571270  0.70351003  0.08465796     0.09000
H1723       H  0.31454828  0.68657659  0.10880456     0.12300
H1724       H  0.36829206  0.70706677  0.08296831     0.14200
C1725       C  0.34367860  0.69405977  0.86488951    -0.01300
C1726       C  0.35445751  0.70331363  0.87977448    -0.09400
C1727       C  0.34499065  0.71277009  0.89528825    -0.18200
C1728       C  0.32428458  0.71313315  0.89653574     0.04200
C1729       C  0.31347075  0.70297239  0.88191441     0.18400
C1730       C  0.32314376  0.69392728  0.86620763    -0.19600
C1731       C  0.29300247  0.70201938  0.88290363    -0.20900
C1732       C  0.28293468  0.71120339  0.89800739    -0.19400
C1733       C  0.29304831  0.72204258  0.91216715     0.19800
C1734       C  0.31387618  0.72330196  0.91160268     0.01900
C1735       C  0.32327130  0.73517760  0.92576913    -0.14200
C1736       C  0.31239728  0.74554098  0.93966001    -0.11900
C1737       C  0.29191703  0.74409489  0.94018071     0.01400
C1738       C  0.28236240  0.73205957  0.92660819    -0.24100
H1739       H  0.37033182  0.70318841  0.87951504     0.09400
H1740       H  0.35428281  0.71949196  0.90616128     0.13000
H1741       H  0.31451422  0.68710439  0.85474179     0.11700
H1742       H  0.28470171  0.69410881  0.87189516     0.12900
H1743       H  0.26707532  0.71020319  0.89834586     0.12000
H1744       H  0.33894103  0.73716216  0.92619272     0.09000
H1745       H  0.32008318  0.75469821  0.95012388     0.12300
H1746       H  0.26649255  0.73102925  0.92685588     0.14200
C1747       C  0.34632464  0.64052229  0.81425137    -0.01300
C1748       C  0.33603235  0.62705777  0.82597805    -0.09400
C1749       C  0.32670555  0.61080243  0.81778658    -0.18200
C1750       C  0.32774330  0.60700141  0.79746773     0.04200
C1751       C  0.33915856  0.61989451  0.78574260     0.18400
C1752       C  0.34789454  0.63661924  0.79405818    -0.19600
C1753       C  0.34169948  0.61608726  0.76573460    -0.20900
C1754       C  0.33292068  0.59986231  0.75705802    -0.19400
C1755       C  0.32086162  0.58739696  0.76803020     0.19800
C1756       C  0.31793254  0.59086824  0.78837084     0.01900
C1757       C  0.30488026  0.57836847  0.79856757    -0.14200
C1758       C  0.29507945  0.56319552  0.78892078    -0.11900
C1759       C  0.29816742  0.55973488  0.76892812     0.01400
C1760       C  0.31130862  0.57174876  0.75864187    -0.24100
H1761       H  0.33520751  0.62889743  0.84170975     0.09400
H1762       H  0.31910668  0.60127056  0.82783540     0.13000
H1763       H  0.35557316  0.64676299  0.78456822     0.11700
H1764       H  0.35058665  0.62570386  0.75673066     0.12900
H1765       H  0.33521265  0.59730977  0.74154149     0.12000
H1766       H  0.30150479  0.58026042  0.81388165     0.09000
H1767       H  0.28495929  0.55415432  0.79717253     0.12300
H1768       H  0.31359448  0.56936014  0.74308961     0.14200
C1769       C  0.39656993  0.69501542  0.81363426    -0.01300
C1770       C  0.39714538  0.71554212  0.81245814    -0.09400
C1771       C  0.41269870  0.72516222  0.80329680    -0.18200
C1772       C  0.42822550  0.71453038  0.79462581     0.04200
C1773       C  0.42749531  0.69372743  0.79555806     0.18400
C1774       C  0.41197937  0.68423830  0.80526250    -0.19600
C1775       C  0.44206797  0.68249077  0.78647573    -0.20900
C1776       C  0.45707043  0.69146085  0.77596946    -0.19400
C1777       C  0.45821273  0.71190959  0.77477225     0.19800
C1778       C  0.44414640  0.72375806  0.78460252     0.01900
C1779       C  0.44664293  0.74432223  0.78394714    -0.14200
C1780       C  0.46198809  0.75273128  0.77336781    -0.11900
C1781       C  0.47520195  0.74103738  0.76288306     0.01400
C1782       C  0.47332568  0.72060787  0.76375031    -0.24100
H1783       H  0.38525303  0.72430740  0.81825559     0.09400
H1784       H  0.41182145  0.74092089  0.80275123     0.13000
H1785       H  0.41189311  0.66837885  0.80619233     0.11700
H1786       H  0.44161585  0.66662188  0.78712580     0.12900
H1787       H  0.46787099  0.68232934  0.76873578     0.12000
H1788       H  0.43708887  0.75431738  0.79157324     0.09000
H1789       H  0.46326193  0.76856058  0.77305468     0.12300
H1790       H  0.48376036  0.71146889  0.75598837     0.14200
C1791       C  0.18991314  0.85186129  0.85591390    -0.01300
C1792       C  0.17774034  0.84174405  0.86908112    -0.09400
C1793       C  0.18551433  0.83236530  0.88558200    -0.18200
C1794       C  0.20583101  0.83304237  0.88970119     0.04200
C1795       C  0.21798698  0.84395587  0.87676959     0.18400
C1796       C  0.21007312  0.85284912  0.86000100    -0.19600
C1797       C  0.23806129  0.84586698  0.88053401    -0.20900
C1798       C  0.24642351  0.83704410  0.89685485    -0.19400
C1799       C  0.23501776  0.82566877  0.90953826     0.19800
C1800       C  0.21457755  0.82331673  0.90610780     0.01900
C1801       C  0.20396221  0.81098474  0.91899738    -0.14200
C1802       C  0.21333204  0.80133113  0.93449124    -0.11900
C1803       C  0.23343142  0.80392199  0.93786463     0.01400
C1804       C  0.24409886  0.81630137  0.92543896    -0.24100
H1805       H  0.16205285  0.84112213  0.86675656     0.09400
H1806       H  0.17521448  0.82491661  0.89496371     0.13000
H1807       H  0.21985481  0.86023476  0.84989934     0.11700
H1808       H  0.24737219  0.85430563  0.87080406     0.12900
H1809       H  0.26201452  0.83884740  0.89937937     0.12000
H1810       H  0.18851209  0.80817198  0.91724275     0.09000
H1811       H  0.20478531  0.79181005  0.94390081     0.12300
H1812       H  0.25971673  0.81819672  0.92778096     0.14200
C1813       C  0.24589961  0.06404769  0.75825640    -0.01300
C1814       C  0.25632167  0.07803672  0.76904276    -0.09400
C1815       C  0.24664048  0.09370113  0.77797621    -0.18200
C1816       C  0.22602400  0.09574796  0.77662181     0.04200
C1817       C  0.21540210  0.08091517  0.76654642     0.18400
C1818       C  0.22540193  0.06547079  0.75719981    -0.19600
C1819       C  0.19488831  0.08166265  0.76578369    -0.20900
C1820       C  0.18467790  0.09697649  0.77462331    -0.19400
C1821       C  0.19473303  0.11223168  0.78399658     0.19800
C1822       C  0.21557991  0.11191830  0.78493401     0.01900
C1823       C  0.22510578  0.12802867  0.79377058    -0.14200
C1824       C  0.21443254  0.14352456  0.80170523    -0.11900
C1825       C  0.19385721  0.14359179  0.80139222     0.01400
C1826       C  0.18409120  0.12789115  0.79232135    -0.24100
H1827       H  0.27214983  0.07717426  0.77012741     0.09400
H1828       H  0.25571799  0.10389081  0.78593290     0.13000
H1829       H  0.21721480  0.05448260  0.74913126     0.11700
H1830       H  0.18666768  0.07028998  0.75832543     0.12900
H1831       H  0.16880533  0.09705744  0.77382793     0.12000
H1832       H  0.24083551  0.12931230  0.79446239     0.09000
H1833       H  0.22244513  0.15571085  0.80799231     0.12300
H1834       H  0.16820345  0.12774281  0.79189555     0.14200
C1835       C  0.30323157  0.06696444  0.70055494    -0.01300
C1836       C  0.31264943  0.08123022  0.71185772    -0.09400
C1837       C  0.32210640  0.09697733  0.70296707    -0.18200
C1838       C  0.32273766  0.09873532  0.68231940     0.04200
C1839       C  0.31351183  0.08390435  0.67091146     0.18400
C1840       C  0.30355086  0.06841747  0.68009994    -0.19600
C1841       C  0.31449493  0.08448974  0.65042890    -0.20900
C1842       C  0.32455967  0.09947214  0.64098214    -0.19400
C1843       C  0.33345871  0.11447522  0.65178430     0.19800
C1844       C  0.33242547  0.11449819  0.67260102     0.01900
C1845       C  0.34098462  0.13039596  0.68277178    -0.14200
C1846       C  0.35038761  0.14545462  0.67270756    -0.11900
C1847       C  0.35175342  0.14516712  0.65222482     0.01400
C1848       C  0.34326963  0.12957652  0.64185947    -0.24100
H1849       H  0.31251078  0.08031709  0.72772185     0.09400
H1850       H  0.32905470  0.10730205  0.71268628     0.13000
H1851       H  0.29645463  0.05720257  0.67133602     0.11700
H1852       H  0.30760774  0.07316666  0.64165866     0.12900
H1853       H  0.32522489  0.09942647  0.62510264     0.12000
H1854       H  0.34034155  0.13187633  0.69847967     0.09000
H1855       H  0.35627813  0.15762162  0.68103956     0.12300
H1856       H  0.34429511  0.12918324  0.62599997     0.14200
C1857       C  0.19545814  0.90200845  0.80251702    -0.01300
C1858       C  0.21596117  0.90264349  0.80401965    -0.09400
C1859       C  0.22670330  0.91784135  0.79558483    -0.18200
C1860       C  0.21728308  0.93301530  0.78509014     0.04200
C1861       C  0.19650522  0.93222215  0.78331446     0.18400
C1862       C  0.18582931  0.91691111  0.79210222    -0.19600
C1863       C  0.18652034  0.94661467  0.77261799    -0.20900
C1864       C  0.19675115  0.96158956  0.76330825    -0.19400
C1865       C  0.21719015  0.96276050  0.76476887     0.19800
C1866       C  0.22774870  0.94873527  0.77601633     0.01900
C1867       C  0.24831005  0.95110259  0.77769462    -0.14200
C1868       C  0.25795974  0.96646256  0.76821741    -0.11900
C1869       C  0.24754788  0.97978341  0.75659830     0.01400
C1870       C  0.22715110  0.97790400  0.75500698    -0.24100
H1871       H  0.22386900  0.89108353  0.81151023     0.09400
H1872       H  0.24238601  0.91705665  0.79725313     0.13000
H1873       H  0.16998123  0.91665033  0.79088789     0.11700
H1874       H  0.17069636  0.94613392  0.77121009     0.12900
H1875       H  0.18860664  0.97234635  0.75490461     0.12000
H1876       H  0.25735554  0.94144003  0.78630920     0.09000
H1877       H  0.27372648  0.96771921  0.76972702     0.12300
H1878       H  0.21896587  0.98839777  0.74629693     0.14200
C1879       C  0.35007201  0.90184203  0.64757681    -0.01300
C1880       C  0.36218872  0.91535608  0.65731354    -0.09400
C1881       C  0.35427468  0.93182383  0.66668261    -0.18200
C1882       C  0.33384421  0.93544502  0.66651549     0.04200
C1883       C  0.32174656  0.92213647  0.65596605     0.18400
C1884       C  0.32983565  0.90552256  0.64693728    -0.19600
C1885       C  0.30152974  0.92530252  0.65463819    -0.20900
C1886       C  0.29293894  0.94130154  0.66378141    -0.19400
C1887       C  0.30426682  0.95428752  0.67489133     0.19800
C1888       C  0.32488398  0.95158565  0.67654120     0.01900
C1889       C  0.33541543  0.96482177  0.68860730    -0.14200
C1890       C  0.32575350  0.97977711  0.69886903    -0.11900
C1891       C  0.30543172  0.98230557  0.69708476     0.01400
C1892       C  0.29490047  0.96968445  0.68478356    -0.24100
H1893       H  0.37791879  0.91324026  0.65769261     0.09400
H1894       H  0.36450960  0.94149969  0.67385512     0.13000
H1895       H  0.32014488  0.89515639  0.63978813     0.11700
H1896       H  0.29225928  0.91529125  0.64648399     0.12900
H1897       H  0.27722037  0.94329028  0.66249721     0.12000
H1898       H  0.35103018  0.96368643  0.69078052     0.09000
H1899       H  0.33422364  0.98940887  0.70823783     0.12300
H1900       H  0.27914415  0.97139838  0.68344475     0.14200
C1901       C  0.34547032  0.84772779  0.59759959    -0.01300
C1902       C  0.32497404  0.84891512  0.59641150    -0.09400
C1903       C  0.31460462  0.83839846  0.58224454    -0.18200
C1904       C  0.32439666  0.82597746  0.56884512     0.04200
C1905       C  0.34515875  0.82475638  0.57009470     0.18400
C1906       C  0.35544446  0.83586046  0.58405078    -0.19600
C1907       C  0.35554781  0.81218991  0.55764089    -0.20900
C1908       C  0.34573876  0.80066962  0.54399013    -0.19400
C1909       C  0.32533661  0.80176343  0.54214247     0.19800
C1910       C  0.31436397  0.81459497  0.55439467     0.01900
C1911       C  0.29386187  0.81562032  0.55147622    -0.14200
C1912       C  0.28473147  0.80454580  0.53692053    -0.11900
C1913       C  0.29558448  0.79184434  0.52501639     0.01400
C1914       C  0.31585904  0.79031443  0.52786749    -0.24100
H1915       H  0.31675472  0.85752973  0.60690294     0.09400
H1916       H  0.29888767  0.83991651  0.58254631     0.13000
H1917       H  0.37130507  0.83500026  0.58450136     0.11700
H1918       H  0.37137558  0.81110131  0.55860801     0.12900
H1919       H  0.35420041  0.79098535  0.53466302     0.12000
H1920       H  0.28448555  0.82508922  0.55993795     0.09000
H1921       H  0.26901382  0.80588960  0.53501841     0.12300
H1922       H  0.32436134  0.78062813  0.51856306     0.14200
C1923       C  0.39706091  0.84479902  0.64979402    -0.01300
C1924       C  0.39691448  0.82422253  0.65032540    -0.09400
C1925       C  0.41199365  0.81378619  0.65937203    -0.18200
C1926       C  0.42768449  0.82360207  0.66867152     0.04200
C1927       C  0.42757637  0.84444582  0.66856598     0.18400
C1928       C  0.41258917  0.85477016  0.65890055    -0.19600
C1929       C  0.44226532  0.85488842  0.67837885    -0.20900
C1930       C  0.45681976  0.84506983  0.68873619    -0.19400
C1931       C  0.45740032  0.82456651  0.68901947     0.19800
C1932       C  0.44317791  0.81351234  0.67852151     0.01900
C1933       C  0.44514204  0.79286139  0.67832317    -0.14200
C1934       C  0.46020303  0.78361205  0.68865797    -0.11900
C1935       C  0.47359951  0.79455306  0.69970700     0.01400
C1936       C  0.47217670  0.81503696  0.69973789    -0.24100
H1937       H  0.38486473  0.81601642  0.64404779     0.09400
H1938       H  0.41062508  0.79805193  0.65932587     0.13000
H1939       H  0.41304712  0.87064740  0.65850974     0.11700
H1940       H  0.44226673  0.87077726  0.67838907     0.12900
H1941       H  0.46775062  0.85358319  0.69652626     0.12000
H1942       H  0.43542435  0.78345834  0.67015243     0.09000
H1943       H  0.46117904  0.76776590  0.68824507     0.12300
H1944       H  0.48279199  0.82361297  0.70790764     0.14200
C1945       C  0.79414592  0.05896878  0.20276508    -0.01300
C1946       C  0.78311596  0.07247845  0.19195434    -0.09400
C1947       C  0.79226419  0.08783368  0.18196081    -0.18200
C1948       C  0.81290970  0.08996951  0.18222157     0.04200
C1949       C  0.82404825  0.07575816  0.19265962     0.18400
C1950       C  0.81461075  0.06068815  0.20304846    -0.19600
C1951       C  0.84454857  0.07663176  0.19264182    -0.20900
C1952       C  0.85428733  0.09146352  0.18262447    -0.19400
C1953       C  0.84376332  0.10608173  0.17279256     0.19800
C1954       C  0.82291703  0.10563499  0.17253112     0.01900
C1955       C  0.81302556  0.12112757  0.16295934    -0.14200
C1956       C  0.82338073  0.13647674  0.15425614    -0.11900
C1957       C  0.84395476  0.13685581  0.15444392     0.01400
C1958       C  0.85401129  0.12137449  0.16354036    -0.24100
H1959       H  0.76727511  0.07135923  0.19148473     0.09400
H1960       H  0.78277599  0.09766092  0.17402237     0.13000
H1961       H  0.82324586  0.05006140  0.21114362     0.11700
H1962       H  0.85312603  0.06573282  0.20040690     0.12900
H1963       H  0.87017751  0.09171210  0.18289154     0.12000
H1964       H  0.79726885  0.12212852  0.16241797     0.09000
H1965       H  0.81512174  0.14840048  0.14780359     0.12300
H1966       H  0.86990382  0.12127227  0.16359679     0.14200
C1967       C  0.68977378  0.13427084  0.31253106    -0.01300
C1968       C  0.71032948  0.13374151  0.31231148    -0.09400
C1969       C  0.72036415  0.11835095  0.30351420    -0.18200
C1970       C  0.71017359  0.10297161  0.29415215     0.04200
C1971       C  0.68935915  0.10383084  0.29366877     0.18400
C1972       C  0.67937184  0.11915946  0.30315665    -0.19600
C1973       C  0.67869851  0.08958614  0.28341297    -0.20900
C1974       C  0.68833485  0.07473981  0.27326252    -0.19400
C1975       C  0.70881839  0.07338190  0.27372884     0.19800
C1976       C  0.71997195  0.08712243  0.28473477     0.01900
C1977       C  0.74047812  0.08437086  0.28592832    -0.14200
C1978       C  0.74961473  0.06919915  0.27583125    -0.11900
C1979       C  0.73872630  0.05638921  0.26410000     0.01400
C1980       C  0.71828676  0.05839650  0.26323974    -0.24100
H1981       H  0.71886639  0.14556899  0.31857010     0.09400
H1982       H  0.73612825  0.11931873  0.30371290     0.13000
H1983       H  0.66348350  0.11933683  0.30312146     0.11700
H1984       H  0.66282550  0.09017979  0.28287904     0.12900
H1985       H  0.67970797  0.06419026  0.26508654     0.12000
H1986       H  0.74987157  0.09353706  0.29471722     0.09000
H1987       H  0.76540220  0.06775591  0.27689497     0.12300
H1988       H  0.70974484  0.04820569  0.25451879     0.14200
C1989       C  0.69170169  0.89319248  0.30898035    -0.01300
C1990       C  0.71223747  0.89384946  0.30928661    -0.09400
C1991       C  0.72238267  0.90932520  0.30061183    -0.18200
C1992       C  0.71227490  0.92471056  0.29108728     0.04200
C1993       C  0.69145430  0.92379444  0.29041907     0.18400
C1994       C  0.68141445  0.90829675  0.29952827    -0.19600
C1995       C  0.68078019  0.93823261  0.28047609    -0.20900
C1996       C  0.69037395  0.95341262  0.27083870    -0.19400
C1997       C  0.71084289  0.95482024  0.27137263     0.19800
C1998       C  0.72208158  0.94075972  0.28189964     0.01900
C1999       C  0.74263386  0.94346262  0.28285691    -0.14200
C2000       C  0.75164599  0.95914746  0.27331160    -0.11900
C2001       C  0.74057848  0.97245518  0.26231259     0.01400
C2002       C  0.72016719  0.97026005  0.26145337    -0.24100
H2003       H  0.72060029  0.88213250  0.31598957     0.09400
H2004       H  0.73814495  0.90856989  0.30125464     0.13000
H2005       H  0.66552026  0.90802624  0.29927935     0.11700
H2006       H  0.66490906  0.93760719  0.27988003     0.12900
H2007       H  0.68171349  0.96418756  0.26299313     0.12000
H2008       H  0.75214807  0.93384840  0.29101381     0.09000
H2009       H  0.76743535  0.96065118  0.27423916     0.12300
H2010       H  0.71148932  0.98074401  0.25322041     0.14200
C2011       C  0.63742346  0.84350171  0.30762298    -0.01300
C2012       C  0.62411369  0.85522196  0.29720488    -0.09400
C2013       C  0.60835302  0.84687895  0.28715089    -0.18200
C2014       C  0.60521887  0.82639223  0.28732995     0.04200
C2015       C  0.61837172  0.81462183  0.29843057     0.18400
C2016       C  0.63436674  0.82316799  0.30815575    -0.19600
C2017       C  0.61551550  0.79435694  0.29977728    -0.20900
C2018       C  0.59980159  0.78547352  0.29035218    -0.19400
C2019       C  0.58685703  0.79656495  0.27893419     0.19800
C2020       C  0.58949565  0.81715334  0.27700806     0.01900
C2021       C  0.57647654  0.82748805  0.26457371    -0.14200
C2022       C  0.56145117  0.81777051  0.25460537    -0.11900
C2023       C  0.55871526  0.79756253  0.25690564     0.01400
C2024       C  0.57141889  0.78708627  0.26919161    -0.24100
H2025       H  0.62576598  0.87100724  0.29692810     0.09400
H2026       H  0.59873982  0.85689429  0.27960832     0.13000
H2027       H  0.64462748  0.81384895  0.31593674     0.11700
H2028       H  0.62543290  0.78531988  0.30830357     0.12900
H2029       H  0.59791146  0.76976194  0.29179626     0.12000
H2030       H  0.57771038  0.84301675  0.26197252     0.09000
H2031       H  0.55184186  0.82616059  0.24513444     0.12300
H2032       H  0.56957531  0.77137941  0.27083472     0.14200
C2033       C  0.73729863  0.79649770  0.44054402    -0.01300
C2034       C  0.73774819  0.81696679  0.43945675    -0.09400
C2035       C  0.72692899  0.82689142  0.42517104    -0.18200
C2036       C  0.71562223  0.81651491  0.41118380     0.04200
C2037       C  0.71528367  0.79570898  0.41241492     0.18400
C2038       C  0.72574790  0.78599024  0.42720942    -0.19600
C2039       C  0.70496145  0.78466012  0.39854910    -0.20900
C2040       C  0.69541911  0.79380144  0.38305176    -0.19400
C2041       C  0.69557952  0.81423647  0.38131257     0.19800
C2042       C  0.70520837  0.82593765  0.39563529     0.01900
C2043       C  0.70421422  0.84653193  0.39357137    -0.14200
C2044       C  0.69492326  0.85506976  0.37745880    -0.11900
C2045       C  0.68636861  0.84345658  0.36280955     0.01400
C2046       C  0.68646548  0.82301565  0.36507765    -0.24100
H2047       H  0.74651059  0.82535486  0.44971651     0.09400
H2048       H  0.72814693  0.84263591  0.42515428     0.13000
H2049       H  0.72548647  0.77010503  0.42788387     0.11700
H2050       H  0.70466241  0.76879646  0.39942496     0.12900
H2051       H  0.68795788  0.78480925  0.37227639     0.12000
H2052       H  0.71047131  0.85645966  0.40414536     0.09000
H2053       H  0.69454074  0.87090617  0.37643420     0.12300
H2054       H  0.68000542  0.81381365  0.35384127     0.14200
C2055       C  0.79664947  0.97516901  0.20181326    -0.01300
C2056       C  0.81713896  0.97460970  0.20257361    -0.09400
C2057       C  0.82752538  0.95970608  0.19323743    -0.18200
C2058       C  0.81763711  0.94456881  0.18308186     0.04200
C2059       C  0.79679642  0.94530167  0.18229722     0.18400
C2060       C  0.78655668  0.96065614  0.19140835    -0.19600
C2061       C  0.78627192  0.93053467  0.17271308    -0.20900
C2062       C  0.79598285  0.91493726  0.16393506    -0.19400
C2063       C  0.81646271  0.91377570  0.16443451     0.19800
C2064       C  0.82762177  0.92861375  0.17392383     0.01900
C2065       C  0.84827165  0.92673467  0.17392737    -0.14200
C2066       C  0.85738849  0.91076678  0.16501989    -0.11900
C2067       C  0.84633398  0.89608190  0.15584736     0.01400
C2068       C  0.82584499  0.89774346  0.15558091    -0.24100
H2069       H  0.82520564  0.98577752  0.21048929     0.09400
H2070       H  0.84325345  0.96032887  0.19452134     0.13000
H2071       H  0.77065962  0.96094605  0.19097253     0.11700
H2072       H  0.77039447  0.93097410  0.17212146     0.12900
H2073       H  0.78739855  0.90367343  0.15672200     0.12000
H2074       H  0.85784561  0.93736195  0.18061910     0.09000
H2075       H  0.87325449  0.91001562  0.16515524     0.12300
H2076       H  0.81711929  0.88634120  0.14875916     0.14200
C2077       C  0.06984188  0.74410675  0.25757304    -0.01300
C2078       C  0.08290734  0.75453672  0.26947528    -0.09400
C2079       C  0.09930852  0.74533209  0.27757500    -0.18200
C2080       C  0.10292914  0.72516850  0.27430686     0.04200
C2081       C  0.08938247  0.71460626  0.26248321     0.18400
C2082       C  0.07330247  0.72420382  0.25394085    -0.19600
C2083       C  0.09170387  0.69443236  0.25960095    -0.20900
C2084       C  0.10692811  0.68436488  0.26866168    -0.19400
C2085       C  0.12056768  0.69433570  0.28030851     0.19800
C2086       C  0.11913048  0.71497157  0.28280866     0.01900
C2087       C  0.13395307  0.72446170  0.29374127    -0.14200
C2088       C  0.14900379  0.71378939  0.30257522    -0.11900
C2089       C  0.14973752  0.69328758  0.30108080     0.01400
C2090       C  0.13555073  0.68372376  0.28963283    -0.24100
H2091       H  0.08051514  0.76995732  0.27242282     0.09400
H2092       H  0.10858958  0.75427854  0.28671061     0.13000
H2093       H  0.06309822  0.71600502  0.24490467     0.11700
H2094       H  0.08140278  0.68629494  0.25063788     0.12900
H2095       H  0.10805623  0.66866214  0.26651885     0.12000
H2096       H  0.13446110  0.74014443  0.29555380     0.09000
H2097       H  0.16017296  0.72173418  0.31058526     0.12300
H2098       H  0.13585189  0.66789672  0.28829139     0.14200
C2099       C  0.14159160  0.85299002  0.15996228    -0.01300
C2100       C  0.14036513  0.85270534  0.18048170    -0.09400
C2101       C  0.12420624  0.84465069  0.18992675    -0.18200
C2102       C  0.10872315  0.83612749  0.17914914     0.04200
C2103       C  0.11008662  0.83606544  0.15835710     0.18400
C2104       C  0.12620895  0.84481775  0.14897741    -0.19600
C2105       C  0.09563039  0.82678085  0.14710564    -0.20900
C2106       C  0.08023975  0.81687849  0.15612905    -0.19400
C2107       C  0.07856458  0.81664614  0.17658617     0.19800
C2108       C  0.09236339  0.82695525  0.18833177     0.01900
C2109       C  0.08929738  0.82749327  0.20880945    -0.14200
C2110       C  0.07392518  0.81719123  0.21735874    -0.11900
C2111       C  0.06119425  0.80592889  0.20588249     0.01400
C2112       C  0.06334225  0.80595632  0.18545208    -0.24100
H2113       H  0.15225144  0.85824441  0.18943798     0.09400
H2114       H  0.12469269  0.84464981  0.20571353     0.13000
H2115       H  0.12686659  0.84500824  0.13310250     0.11700
H2116       H  0.09655782  0.82666321  0.13124118     0.12900
H2117       H  0.06961557  0.80930249  0.14705375     0.12000
H2118       H  0.09847289  0.83576990  0.21865059     0.09000
H2119       H  0.07239738  0.81755062  0.23316877     0.12300
H2120       H  0.05323566  0.79757405  0.17647920     0.14200
C2121       C  0.97671364  0.79820079  0.20943219    -0.01300
C2122       C  0.97270533  0.81790590  0.21348812    -0.09400
C2123       C  0.95745365  0.82765114  0.20388705    -0.18200
C2124       C  0.94552535  0.81782791  0.19002872     0.04200
C2125       C  0.94896808  0.79752842  0.18685507     0.18400
C2126       C  0.96462934  0.78804567  0.19626258    -0.19600
C2127       C  0.93678311  0.78681124  0.17428894    -0.20900
C2128       C  0.92122623  0.79585631  0.16471416    -0.19400
C2129       C  0.91790673  0.81597910  0.16692423     0.19800
C2130       C  0.93023209  0.82733704  0.17932207     0.01900
C2131       C  0.92698685  0.84777371  0.18010379    -0.14200
C2132       C  0.91183678  0.85645405  0.16943261    -0.11900
C2133       C  0.89913576  0.84511784  0.15786125     0.01400
C2134       C  0.90237746  0.82482880  0.15667767    -0.24100
H2135       H  0.98169611  0.82597602  0.22380343     0.09400
H2136       H  0.95525165  0.84280807  0.20775226     0.13000
H2137       H  0.96735895  0.77264884  0.19339307     0.11700
H2138       H  0.93921383  0.77128417  0.17195867     0.12900
H2139       H  0.91194157  0.78711345  0.15522694     0.12000
H2140       H  0.93618459  0.85751664  0.18848251     0.09000
H2141       H  0.91019217  0.87222140  0.17017716     0.12300
H2142       H  0.89266301  0.81578009  0.14794368     0.14200
C2143       C  0.90240212  0.69101258  0.30649449    -0.01300
C2144       C  0.90634709  0.68793149  0.28650544    -0.09400
C2145       C  0.92313509  0.69555661  0.27774269    -0.18200
C2146       C  0.93638501  0.70725483  0.28849361     0.04200
C2147       C  0.93200100  0.71117935  0.30846103     0.18400
C2148       C  0.91555645  0.70257730  0.31738833    -0.19600
C2149       C  0.94380278  0.72404483  0.31927124    -0.20900
C2150       C  0.95954393  0.73355090  0.31045225    -0.19400
C2151       C  0.96436814  0.72973996  0.29087302     0.19800
C2152       C  0.95333919  0.71590814  0.27987543     0.01900
C2153       C  0.95968026  0.71143169  0.26067090    -0.14200
C2154       C  0.97531937  0.72146403  0.25218956    -0.11900
C2155       C  0.98511710  0.73626446  0.26250696     0.01400
C2156       C  0.97993170  0.73993696  0.28206678    -0.24100
H2157       H  0.89621826  0.67993356  0.27728018     0.09400
H2158       H  0.92487641  0.69273459  0.26229246     0.13000
H2159       H  0.91307317  0.70507291  0.33286034     0.11700
H2160       H  0.94048157  0.72723589  0.33447887     0.12900
H2161       H  0.96801436  0.74392562  0.31900737     0.12000
H2162       H  0.95284012  0.70025920  0.25183068     0.09000
H2163       H  0.97930061  0.71803164  0.23720518     0.12300
H2164       H  0.98775629  0.75102365  0.29035253     0.14200
C2165       C  0.84851245  0.64099453  0.30573542    -0.01300
C2166       C  0.83821403  0.62721944  0.31697432    -0.09400
C2167       C  0.82854919  0.61154339  0.30806915    -0.18200
C2168       C  0.82897428  0.60904341  0.28749164     0.04200
C2169       C  0.84011316  0.62258638  0.27623525     0.18400
C2170       C  0.84945789  0.63846151  0.28534319    -0.19600
C2171       C  0.84179387  0.62029500  0.25591995    -0.20900
C2172       C  0.83250641  0.60485429  0.24645822    -0.19400
C2173       C  0.82085544  0.59168697  0.25701184     0.19800
C2174       C  0.81873498  0.59366964  0.27766053     0.01900
C2175       C  0.80605315  0.58049522  0.28745148    -0.14200
C2176       C  0.79587332  0.56606600  0.27712619    -0.11900
C2177       C  0.79824195  0.56407832  0.25684511     0.01400
C2178       C  0.81094435  0.57678160  0.24692288    -0.24100
H2179       H  0.83768579  0.62848497  0.33279324     0.09400
H2180       H  0.82105577  0.60153429  0.31772022     0.13000
H2181       H  0.85721422  0.64908281  0.27641786     0.11700
H2182       H  0.85040383  0.63049003  0.24728856     0.12900
H2183       H  0.83412855  0.60343680  0.23071153     0.12000
H2184       H  0.80332907  0.58122638  0.30299157     0.09000
H2185       H  0.78613974  0.55636213  0.28508753     0.12300
H2186       H  0.81267927  0.57544827  0.23117112     0.14200
C2187       C  0.84803902  0.69389416  0.35670075    -0.01300
C2188       C  0.83927037  0.68226580  0.37120865    -0.09400
C2189       C  0.82980410  0.69075467  0.38719919    -0.18200
C2190       C  0.82888164  0.71133816  0.38934802     0.04200
C2191       C  0.83853292  0.72308858  0.37509383     0.18400
C2192       C  0.84775250  0.71434746  0.35888713    -0.19600
C2193       C  0.83884609  0.74351057  0.37704281    -0.20900
C2194       C  0.82967911  0.75256057  0.39283384    -0.19400
C2195       C  0.81952987  0.74144804  0.40678127     0.19800
C2196       C  0.81876482  0.72067706  0.40511148     0.01900
C2197       C  0.80752662  0.71020750  0.41903880    -0.14200
C2198       C  0.79758265  0.71994948  0.43399658    -0.11900
C2199       C  0.79873424  0.74034877  0.43581847     0.01400
C2200       C  0.80985622  0.75101888  0.42224450    -0.24100
H2201       H  0.83982159  0.66642514  0.37028331     0.09400
H2202       H  0.82356556  0.68077699  0.39773380     0.13000
H2203       H  0.85440048  0.72356536  0.34778387     0.11700
H2204       H  0.84630183  0.75255395  0.36631106     0.12900
H2205       H  0.83026043  0.76839769  0.39396763     0.12000
H2206       H  0.80578904  0.69452016  0.41857300     0.09000
H2207       H  0.78905714  0.71141223  0.44432977     0.12300
H2208       H  0.81058169  0.76685580  0.42343333     0.14200
C2209       C  0.19030281  0.63769243  0.65951231    -0.01300
C2210       C  0.17879019  0.62332472  0.66863279    -0.09400
C2211       C  0.18741704  0.60843682  0.67972871    -0.18200
C2212       C  0.20799687  0.60744772  0.68207306     0.04200
C2213       C  0.21962344  0.62179185  0.67235960     0.18400
C2214       C  0.21073414  0.63673145  0.66134377    -0.19600
C2215       C  0.24008179  0.62115217  0.67365865    -0.20900
C2216       C  0.24933018  0.60625357  0.68400262    -0.19400
C2217       C  0.23833121  0.59191609  0.69370254     0.19800
C2218       C  0.21749696  0.59259166  0.69339717     0.01900
C2219       C  0.20716082  0.57839655  0.70448869    -0.14200
C2220       C  0.21713945  0.56367771  0.71470090    -0.11900
C2221       C  0.23760259  0.56248944  0.71392318     0.01400
C2222       C  0.24810377  0.57679900  0.70362746    -0.24100
H2223       H  0.16297448  0.62360155  0.66715181     0.09400
H2224       H  0.17760978  0.59782201  0.68610710     0.13000
H2225       H  0.21975400  0.64787702  0.65447680     0.11700
H2226       H  0.24901447  0.63207418  0.66634579     0.12900
H2227       H  0.26521648  0.60594200  0.68441591     0.12000
H2228       H  0.19140259  0.57832332  0.70562051     0.09000
H2229       H  0.20878877  0.55286815  0.72280789     0.12300
H2230       H  0.26399848  0.57619846  0.70341004     0.14200
C2231       C  0.18934431  0.68582460  0.60358776    -0.01300
C2232       C  0.19744898  0.67413729  0.58877706    -0.09400
C2233       C  0.20663672  0.68267523  0.57253486    -0.18200
C2234       C  0.20803708  0.70331003  0.57062954     0.04200
C2235       C  0.19942459  0.71504154  0.58552730     0.18400
C2236       C  0.19041930  0.70628117  0.60176687    -0.19600
C2237       C  0.19996146  0.73550505  0.58428244    -0.20900
C2238       C  0.20897496  0.74468487  0.56852748    -0.19400
C2239       C  0.21797978  0.73362690  0.55381167     0.19800
C2240       C  0.21778471  0.71277236  0.55465623     0.01900
C2241       C  0.22774669  0.70238633  0.53971556    -0.14200
C2242       C  0.23772598  0.71232813  0.52483578    -0.11900
C2243       C  0.23769011  0.73282337  0.52408644     0.01400
C2244       C  0.22755205  0.74337477  0.53843808    -0.24100
H2245       H  0.19658133  0.65831110  0.58968205     0.09400
H2246       H  0.21242426  0.67274577  0.56170814     0.13000
H2247       H  0.18453468  0.71552236  0.61328031     0.11700
H2248       H  0.19334793  0.74449464  0.59559190     0.12900
H2249       H  0.20915131  0.76056544  0.56799928     0.12000
H2250       H  0.22844021  0.68661583  0.53933602     0.09000
H2251       H  0.24544560  0.70393795  0.51378145     0.12300
H2252       H  0.22768828  0.75927153  0.53800500     0.14200
C2253       C  0.64228947  0.20086005  0.65128344    -0.01300
C2254       C  0.64206680  0.22138607  0.65233025    -0.09400
C2255       C  0.62686286  0.23125796  0.66176615    -0.18200
C2256       C  0.61136124  0.22086394  0.67076976     0.04200
C2257       C  0.61186136  0.20003854  0.67008000     0.18400
C2258       C  0.62707598  0.19030631  0.66022750    -0.19600
C2259       C  0.59725528  0.18901905  0.67935919    -0.20900
C2260       C  0.58234748  0.19823713  0.68972399    -0.19400
C2261       C  0.58142861  0.21870246  0.69066593     0.19800
C2262       C  0.59561741  0.23034730  0.68077321     0.01900
C2263       C  0.59337203  0.25096016  0.68130746    -0.14200
C2264       C  0.57806289  0.25959320  0.69175723    -0.11900
C2265       C  0.56470635  0.24804508  0.70219209     0.01400
C2266       C  0.56637488  0.22761074  0.70148459    -0.24100
H2267       H  0.65386782  0.22993898  0.64603764     0.09400
H2268       H  0.62790309  0.24701082  0.66209308     0.13000
H2269       H  0.62696362  0.17443604  0.65939724     0.11700
H2270       H  0.59754372  0.17314003  0.67887358     0.12900
H2271       H  0.57144321  0.18928947  0.69704377     0.12000
H2272       H  0.60307544  0.26081302  0.67367904     0.09000
H2273       H  0.57686439  0.27542975  0.69194567     0.12300
H2274       H  0.55575846  0.21860961  0.70917721     0.14200
C2275       C  0.73958005  0.24800535  0.51868116    -0.01300
C2276       C  0.71928760  0.25043932  0.52063397    -0.09400
C2277       C  0.70905470  0.24113118  0.53573690    -0.18200
C2278       C  0.71892800  0.22920815  0.54956276     0.04200
C2279       C  0.73964923  0.22752112  0.54795511     0.18400
C2280       C  0.74967137  0.23666094  0.53250576    -0.19600
C2281       C  0.75029234  0.21671278  0.56176513    -0.20900
C2282       C  0.74077944  0.20732240  0.57710897    -0.19400
C2283       C  0.72035699  0.20817516  0.57877734     0.19800
C2284       C  0.70907492  0.21898350  0.56496259     0.01900
C2285       C  0.68844093  0.21884570  0.56705490    -0.14200
C2286       C  0.67948188  0.20873080  0.58243202    -0.11900
C2287       C  0.69072119  0.19850258  0.59627520     0.01400
C2288       C  0.71116816  0.19825124  0.59425567    -0.24100
H2289       H  0.71121397  0.25935273  0.51025182     0.09400
H2290       H  0.69347008  0.24366671  0.53626537     0.13000
H2291       H  0.76545501  0.23508555  0.53135727     0.11700
H2292       H  0.76610838  0.21554331  0.56071588     0.12900
H2293       H  0.74944871  0.19912514  0.58761645     0.12000
H2294       H  0.67880170  0.22623439  0.55694569     0.09000
H2295       H  0.66363524  0.20888288  0.58345045     0.12300
H2296       H  0.72004456  0.19061275  0.60501752     0.14200
C2297       C  0.68817996  0.64284818  0.15022256    -0.01300
C2298       C  0.68784682  0.64231610  0.17078924    -0.09400
C2299       C  0.69714117  0.62727809  0.18111911    -0.18200
C2300       C  0.70742255  0.61226815  0.17119970     0.04200
C2301       C  0.70801882  0.61301941  0.15037457     0.18400
C2302       C  0.69821376  0.62797824  0.14015646    -0.19600
C2303       C  0.71861472  0.59897381  0.13983496    -0.20900
C2304       C  0.72891682  0.58431693  0.14954180    -0.19400
C2305       C  0.72846215  0.58302208  0.17001004     0.19800
C2306       C  0.71739013  0.59673288  0.18115301     0.01900
C2307       C  0.71668969  0.59416779  0.20173188    -0.14200
C2308       C  0.72677914  0.57882603  0.21080875    -0.11900
C2309       C  0.73813472  0.56575534  0.19978940     0.01400
C2310       C  0.73894594  0.56797438  0.17939533    -0.24100
H2311       H  0.68072756  0.65383706  0.17905655     0.09400
H2312       H  0.69640006  0.62809164  0.19687799     0.13000
H2313       H  0.69845944  0.62803089  0.12426511     0.11700
H2314       H  0.71917863  0.59949412  0.12396001     0.12900
H2315       H  0.73720030  0.57382673  0.14095612     0.12000
H2316       H  0.70828701  0.60360594  0.21120147     0.09000
H2317       H  0.72591880  0.57735869  0.22660384     0.12300
H2318       H  0.74749300  0.55772618  0.17075714     0.14200
C2319       C  0.63512176  0.69379918  0.14541227    -0.01300
C2320       C  0.63365715  0.71429826  0.14469271    -0.09400
C2321       C  0.61819893  0.72410168  0.15374581    -0.18200
C2322       C  0.60368611  0.71376535  0.16430284     0.04200
C2323       C  0.60521083  0.69300873  0.16521120     0.18400
C2324       C  0.62056528  0.68324734  0.15550076    -0.19600
C2325       C  0.59167218  0.68216259  0.17619978    -0.20900
C2326       C  0.57693798  0.69154848  0.18673646    -0.19400
C2327       C  0.57503417  0.71197391  0.18610609     0.19800
C2328       C  0.58806415  0.72333100  0.17444221     0.01900
C2329       C  0.58490084  0.74378809  0.17346139    -0.14200
C2330       C  0.56986595  0.75263458  0.18407921    -0.11900
C2331       C  0.55758325  0.74152238  0.19618925     0.01400
C2332       C  0.56017579  0.72115257  0.19707866    -0.24100
H2333       H  0.64488136  0.72301192  0.13762955     0.09400
H2334       H  0.61845301  0.73985831  0.15276159     0.13000
H2335       H  0.62128886  0.66738932  0.15606680     0.11700
H2336       H  0.59274541  0.66633059  0.17700143     0.12900
H2337       H  0.56694485  0.68276253  0.19542299     0.12000
H2338       H  0.59366334  0.75338264  0.16448660     0.09000
H2339       H  0.56805809  0.76837913  0.18303084     0.12300
H2340       H  0.55047818  0.71240853  0.20614972     0.14200
C2341       C  0.79483451  0.06124699  0.75271619    -0.01300
C2342       C  0.79431274  0.06178779  0.77321824    -0.09400
C2343       C  0.80535987  0.07553888  0.78361486    -0.18200
C2344       C  0.81704532  0.08954302  0.77372579     0.04200
C2345       C  0.81706869  0.08924370  0.75286919     0.18400
C2346       C  0.80635451  0.07492853  0.74262387    -0.19600
C2347       C  0.82752506  0.10342582  0.74235492    -0.20900
C2348       C  0.83774626  0.11812581  0.75210469    -0.19400
C2349       C  0.83824697  0.11867630  0.77261818     0.19800
C2350       C  0.82830955  0.10411613  0.78373566     0.01900
C2351       C  0.83010933  0.10479472  0.80437465    -0.14200
C2352       C  0.84060359  0.11976960  0.81357210    -0.11900
C2353       C  0.84954260  0.13471861  0.80263085     0.01400
C2354       C  0.84848641  0.13385667  0.78207968    -0.24100
H2355       H  0.78546382  0.05135272  0.78128967     0.09400
H2356       H  0.80411713  0.07507943  0.79935654     0.13000
H2357       H  0.80656332  0.07475308  0.72672190     0.11700
H2358       H  0.82752104  0.10335231  0.72646161     0.12900
H2359       H  0.84539098  0.12910383  0.74352685     0.12000
H2360       H  0.82372273  0.09386905  0.81382987     0.09000
H2361       H  0.84167516  0.11962953  0.82941372     0.12300
H2362       H  0.85518460  0.14531804  0.77335128     0.14200
C2363       C  0.73518596  0.06372302  0.69410539    -0.01300
C2364       C  0.71546060  0.06777524  0.69808801    -0.09400
C2365       C  0.70567434  0.08285965  0.68831378    -0.18200
C2366       C  0.71546669  0.09466908  0.67436256     0.04200
C2367       C  0.73557213  0.09064548  0.67056471     0.18400
C2368       C  0.74509180  0.07509485  0.68014615    -0.19600
C2369       C  0.74618939  0.10244515  0.65756586    -0.20900
C2370       C  0.73742899  0.11856753  0.64869945    -0.19400
C2371       C  0.71767797  0.12294186  0.65215957     0.19800
C2372       C  0.70623420  0.11069557  0.66451961     0.01900
C2373       C  0.68609067  0.11511185  0.66654690    -0.14200
C2374       C  0.67791704  0.13153821  0.65747410    -0.11900
C2375       C  0.68950656  0.14436149  0.64629940     0.01400
C2376       C  0.70939187  0.13969599  0.64352533    -0.24100
H2377       H  0.70749299  0.05919895  0.70882227     0.09400
H2378       H  0.69058960  0.08520872  0.69236795     0.13000
H2379       H  0.76043732  0.07221402  0.67714016     0.11700
H2380       H  0.76151483  0.09946619  0.65459915     0.12900
H2381       H  0.74618395  0.12770692  0.63908838     0.12000
H2382       H  0.67620261  0.10604967  0.67489450     0.09000
H2383       H  0.66236971  0.13415628  0.65928635     0.12300
H2384       H  0.71872651  0.14938666  0.63509493     0.14200
C2385       C  0.06033058  0.80263090  0.75653004    -0.01300
C2386       C  0.06179928  0.82302355  0.75483396    -0.09400
C2387       C  0.07748750  0.83312967  0.76327353    -0.18200
C2388       C  0.09253081  0.82300722  0.77336979     0.04200
C2389       C  0.09101250  0.80224859  0.77483831     0.18400
C2390       C  0.07484845  0.79235805  0.76677554    -0.19600
C2391       C  0.10581547  0.79141479  0.78401759    -0.20900
C2392       C  0.12218054  0.80072918  0.79177659    -0.19400
C2393       C  0.12396527  0.82114650  0.79090678     0.19800
C2394       C  0.10912491  0.83264256  0.78184085     0.01900
C2395       C  0.11153565  0.85325323  0.78178503    -0.14200
C2396       C  0.12788025  0.86201196  0.79052712    -0.11900
C2397       C  0.14243665  0.85060409  0.79949574     0.01400
C2398       C  0.14046188  0.83012943  0.79930964    -0.24100
H2399       H  0.05073218  0.83122271  0.74690972     0.09400
H2400       H  0.07760428  0.84879519  0.76129564     0.13000
H2401       H  0.07393669  0.77651882  0.76784626     0.11700
H2402       H  0.10481348  0.77559029  0.78505780     0.12900
H2403       H  0.13344045  0.79189935  0.79870103     0.12000
H2404       H  0.10087905  0.86304522  0.77545518     0.09000
H2405       H  0.12887477  0.87785697  0.79067343     0.12300
H2406       H  0.15178566  0.82108105  0.80583703     0.14200
C2407       C  0.13992622  0.69115130  0.65725154    -0.01300
C2408       C  0.13851026  0.71149120  0.65447295    -0.09400
C2409       C  0.12318152  0.72219068  0.66265484    -0.18200
C2410       C  0.10881905  0.71297452  0.67434665     0.04200
C2411       C  0.11097073  0.69262973  0.67827083     0.18400
C2412       C  0.12613199  0.68187370  0.66940776    -0.19600
C2413       C  0.09801605  0.68317952  0.69107941    -0.20900
C2414       C  0.08297418  0.69356062  0.70011310    -0.19400
C2415       C  0.08004481  0.71344176  0.69592721     0.19800
C2416       C  0.09262342  0.72330902  0.68258022     0.01900
C2417       C  0.08822766  0.74298900  0.67776854    -0.14200
C2418       C  0.07249153  0.75269526  0.68648458    -0.11900
C2419       C  0.06074586  0.74322173  0.70039135     0.01400
C2420       C  0.06452168  0.72351866  0.70492504    -0.24100
H2421       H  0.14943701  0.71934658  0.64605947     0.09400
H2422       H  0.12325817  0.73776268  0.65996266     0.13000
H2423       H  0.12700282  0.66620584  0.67186765     0.11700
H2424       H  0.09968494  0.66771626  0.69433529     0.12900
H2425       H  0.07336706  0.68590794  0.71019591     0.12000
H2426       H  0.09649040  0.75119063  0.66708068     0.09000
H2427       H  0.06973336  0.76782983  0.68254396     0.12300
H2428       H  0.05525075  0.71593074  0.71537825     0.14200
C2429       C  0.80273578  0.80174036  0.02092603    -0.01300
C2430       C  0.80098138  0.82202998  0.02343148    -0.09400
C2431       C  0.81129340  0.83168837  0.03825761    -0.18200
C2432       C  0.82343724  0.82120285  0.05141849     0.04200
C2433       C  0.82502659  0.80056632  0.04887805     0.18400
C2434       C  0.81507006  0.79114659  0.03349127    -0.19600
C2435       C  0.83606956  0.78935908  0.06205677    -0.20900
C2436       C  0.84506309  0.79810908  0.07811823    -0.19400
C2437       C  0.84374987  0.81836994  0.08106283     0.19800
C2438       C  0.83347308  0.83030776  0.06741671     0.01900
C2439       C  0.83355951  0.85079573  0.07051528    -0.14200
C2440       C  0.84255749  0.85893407  0.08701398    -0.11900
C2441       C  0.85159955  0.84700505  0.10114919     0.01400
C2442       C  0.85239945  0.82670510  0.09779657    -0.24100
H2443       H  0.79155051  0.83050923  0.01385850     0.09400
H2444       H  0.80898908  0.84727173  0.03938983     0.13000
H2445       H  0.81631098  0.77538952  0.03177765     0.11700
H2446       H  0.83732694  0.77362686  0.06022586     0.12900
H2447       H  0.85306252  0.78894254  0.08835028     0.12000
H2448       H  0.82689738  0.86094257  0.06039612     0.09000
H2449       H  0.84232836  0.87471076  0.08869749     0.12300
H2450       H  0.85922523  0.81718434  0.10853380     0.14200
C2451       C  0.74141572  0.74455308  0.02157829    -0.01300
C2452       C  0.72092179  0.74406567  0.02088860    -0.09400
C2453       C  0.71021527  0.73369069  0.03492076    -0.18200
C2454       C  0.71974337  0.72377821  0.05046320     0.04200
C2455       C  0.74056683  0.72485753  0.05140425     0.18400
C2456       C  0.75118318  0.73481616  0.03679370    -0.19600
C2457       C  0.75064865  0.71621541  0.06705495    -0.20900
C2458       C  0.74050081  0.70660386  0.08189382    -0.19400
C2459       C  0.72005231  0.70493043  0.08119366     0.19800
C2460       C  0.70937927  0.71317561  0.06529816     0.01900
C2461       C  0.68882375  0.71038533  0.06495609    -0.14200
C2462       C  0.67925646  0.70039400  0.08006616    -0.11900
C2463       C  0.68974372  0.69290047  0.09609226     0.01400
C2464       C  0.71021134  0.69513572  0.09641208    -0.24100
H2465       H  0.71312576  0.75154880  0.00923533     0.09400
H2466       H  0.69449351  0.73401244  0.03339218     0.13000
H2467       H  0.76706072  0.73542998  0.03752477     0.11700
H2468       H  0.76649195  0.71711110  0.06795956     0.12900
H2469       H  0.74873304  0.70030296  0.09394714     0.12000
H2470       H  0.67973103  0.71558965  0.05312435     0.09000
H2471       H  0.66351578  0.69849933  0.07915531     0.12300
H2472       H  0.71854144  0.68962983  0.10878261     0.14200
C2473       C  0.89692222  0.85240393  0.80360666    -0.01300
C2474       C  0.91203096  0.84450784  0.81515613    -0.09400
C2475       C  0.92806801  0.83507029  0.80657358    -0.18200
C2476       C  0.92970593  0.83336135  0.78597398     0.04200
C2477       C  0.91491381  0.84224711  0.77428392     0.18400
C2478       C  0.89868094  0.85134143  0.78310602    -0.19600
C2479       C  0.91626056  0.84182361  0.75380956    -0.20900
C2480       C  0.93192969  0.83259361  0.74463643    -0.19400
C2481       C  0.94637621  0.82309651  0.75568978     0.19800
C2482       C  0.94539635  0.82313679  0.77652941     0.01900
C2483       C  0.95987217  0.81250253  0.78693473    -0.14200
C2484       C  0.97461377  0.80227880  0.77703990    -0.11900
C2485       C  0.97569835  0.80265081  0.75654807     0.01400
C2486       C  0.96162760  0.81323935  0.74597305    -0.24100
H2487       H  0.91152441  0.84561922  0.83098164     0.09400
H2488       H  0.93902793  0.82941291  0.81645699     0.13000
H2489       H  0.88712938  0.85713390  0.77386076     0.11700
H2490       H  0.90511346  0.84871147  0.74480750     0.12900
H2491       H  0.93255269  0.83256938  0.72875519     0.12000
H2492       H  0.95995969  0.81145036  0.80269908     0.09000
H2493       H  0.98534955  0.79416719  0.78549097     0.12300
H2494       H  0.96223363  0.81334625  0.73008031     0.14200
C2495       C  0.84083991  0.90043558  0.80167792    -0.01300
C2496       C  0.82028820  0.90012890  0.80082853    -0.09400
C2497       C  0.80988482  0.91510875  0.79154942    -0.18200
C2498       C  0.81973658  0.93094138  0.78251273     0.04200
C2499       C  0.84058176  0.93088455  0.78278886     0.18400
C2500       C  0.85086160  0.91592007  0.79254582    -0.19600
C2501       C  0.85106557  0.94568800  0.77319133    -0.20900
C2502       C  0.84128808  0.96042482  0.76304652    -0.19400
C2503       C  0.82078149  0.96108575  0.76277966     0.19800
C2504       C  0.80968801  0.94664067  0.77293790     0.01900
C2505       C  0.78904714  0.94870771  0.77326673    -0.14200
C2506       C  0.77985114  0.96417130  0.76350157    -0.11900
C2507       C  0.79082231  0.97782815  0.75281853     0.01400
C2508       C  0.81128470  0.97622182  0.75251823    -0.24100
H2509       H  0.81212739  0.88806318  0.80714124     0.09400
H2510       H  0.79415422  0.91364232  0.79133194     0.13000
H2511       H  0.86673705  0.91643012  0.79310910     0.11700
H2512       H  0.86695880  0.94570490  0.77327756     0.12900
H2513       H  0.84983652  0.97149746  0.75550651     0.12000
H2514       H  0.77962463  0.93880735  0.78118889     0.09000
H2515       H  0.76400966  0.96526347  0.76403682     0.12300
H2516       H  0.81985311  0.98701812  0.74458727     0.14200
C2517       C  0.79927712  0.80310761  0.93692784    -0.01300
C2518       C  0.79683043  0.82339384  0.93478826    -0.09400
C2519       C  0.80595691  0.83354421  0.91950541    -0.18200
C2520       C  0.81765873  0.82360534  0.90556593     0.04200
C2521       C  0.81986266  0.80296904  0.90768273     0.18400
C2522       C  0.81098009  0.79303313  0.92340179    -0.19600
C2523       C  0.83065755  0.79227989  0.89391473    -0.20900
C2524       C  0.83916128  0.80158247  0.87791578    -0.19400
C2525       C  0.83744827  0.82187848  0.87548792     0.19800
C2526       C  0.82695721  0.83327103  0.88942357     0.01900
C2527       C  0.82627665  0.85379833  0.88654859    -0.14200
C2528       C  0.83527004  0.86251874  0.87032418    -0.11900
C2529       C  0.84508991  0.85115604  0.85626001     0.01400
C2530       C  0.84612346  0.83079774  0.85907993    -0.24100
H2531       H  0.78782658  0.83151270  0.94504178     0.09400
H2532       H  0.80327719  0.84909368  0.91880721     0.13000
H2533       H  0.81273843  0.77729300  0.92478431     0.11700
H2534       H  0.83232722  0.77654735  0.89538902     0.12900
H2535       H  0.84721590  0.79282576  0.86738796     0.12000
H2536       H  0.81908089  0.86354886  0.89667449     0.09000
H2537       H  0.83459986  0.87831091  0.86888306     0.12300
H2538       H  0.85336966  0.82170653  0.84825992     0.14200
C2539       C  0.89978223  0.69175403  0.65057766    -0.01300
C2540       C  0.90348458  0.71140900  0.64573474    -0.09400
C2541       C  0.91899660  0.72161275  0.65419580    -0.18200
C2542       C  0.93120028  0.71267284  0.66833249     0.04200
C2543       C  0.92718596  0.69293578  0.67365272     0.18400
C2544       C  0.91193494  0.68256875  0.66445665    -0.19600
C2545       C  0.93814545  0.68380741  0.68842555    -0.20900
C2546       C  0.95276082  0.69403084  0.69832925    -0.19400
C2547       C  0.95718831  0.71342260  0.69326790     0.19800
C2548       C  0.94683236  0.72283142  0.67781040     0.01900
C2549       C  0.95257152  0.74201943  0.67250519    -0.14200
C2550       C  0.96736162  0.75174537  0.68268390    -0.11900
C2551       C  0.97691500  0.74279395  0.69850990     0.01400
C2552       C  0.97189484  0.72351494  0.70360011    -0.24100
H2553       H  0.89402051  0.71928813  0.63571917     0.09400
H2554       H  0.92055807  0.73671576  0.64986442     0.13000
H2555       H  0.90946248  0.66736085  0.66831306     0.11700
H2556       H  0.93510900  0.66879155  0.69264510     0.12900
H2557       H  0.96070284  0.68669539  0.70998290     0.12000
H2558       H  0.94606348  0.74988180  0.66044898     0.09000
H2559       H  0.97114144  0.76651892  0.67824682     0.12300
H2560       H  0.97948889  0.71630677  0.71556982     0.14200
C2561       C  0.84420328  0.64366536  0.65657108    -0.01300
C2562       C  0.82369360  0.64238929  0.65582582    -0.09400
C2563       C  0.81369521  0.62775734  0.66604557    -0.18200
C2564       C  0.82390921  0.61391771  0.67762764     0.04200
C2565       C  0.84458883  0.61586311  0.67918552     0.18400
C2566       C  0.85449906  0.63036557  0.66847271    -0.19600
C2567       C  0.85529540  0.60324272  0.69133352    -0.20900
C2568       C  0.84590725  0.58849266  0.70180049    -0.19400
C2569       C  0.82567325  0.58563801  0.69991188     0.19800
C2570       C  0.81438658  0.59821072  0.68767109     0.01900
C2571       C  0.79416019  0.59416923  0.68559041    -0.14200
C2572       C  0.78555519  0.57832644  0.69522524    -0.11900
C2573       C  0.79666891  0.56614422  0.70746054     0.01400
C2574       C  0.81670651  0.57001569  0.70990332    -0.24100
H2575       H  0.81521111  0.65285782  0.64743466     0.09400
H2576       H  0.79794963  0.62784831  0.66477794     0.13000
H2577       H  0.87036123  0.63103790  0.66919262     0.11700
H2578       H  0.87104907  0.60480167  0.69276671     0.12900
H2579       H  0.85460341  0.57897637  0.71110134     0.12000
H2580       H  0.78465401  0.60269906  0.67629381     0.09000
H2581       H  0.77002657  0.57568505  0.69315707     0.12300
H2582       H  0.82545560  0.56056887  0.71923884     0.14200
C2583       C  0.84956360  0.68798622  0.59764844    -0.01300
C2584       C  0.83835414  0.67685815  0.58449650    -0.09400
C2585       C  0.82938320  0.68566406  0.56828621    -0.18200
C2586       C  0.83142472  0.70600551  0.56464132     0.04200
C2587       C  0.84319608  0.71709226  0.57775975     0.18400
C2588       C  0.85187580  0.70812371  0.59405859    -0.19600
C2589       C  0.84604155  0.73718525  0.57476711    -0.20900
C2590       C  0.83714927  0.74667924  0.55912146    -0.19400
C2591       C  0.82499559  0.73635721  0.54623864     0.19800
C2592       C  0.82199730  0.71584659  0.54871701     0.01900
C2593       C  0.80929980  0.70623890  0.53544098    -0.14200
C2594       C  0.79948722  0.71669194  0.52084378    -0.11900
C2595       C  0.80224434  0.73692606  0.51874342     0.01400
C2596       C  0.81537671  0.74658638  0.53119356    -0.24100
H2597       H  0.83651853  0.66124566  0.58667965     0.09400
H2598       H  0.82096340  0.67614572  0.55890607     0.13000
H2599       H  0.86005816  0.71709816  0.60431230     0.11700
H2600       H  0.85511620  0.74566295  0.58469098     0.12900
H2601       H  0.83950892  0.76228846  0.55730028     0.12000
H2602       H  0.80628662  0.69075781  0.53620346     0.09000
H2603       H  0.78953733  0.70888972  0.51122272     0.12300
H2604       H  0.81751381  0.76227100  0.52968932     0.14200
C2605       C  0.68777371  0.89605004  0.65112382    -0.01300
C2606       C  0.68622604  0.89874479  0.67145289    -0.09400
C2607       C  0.69423454  0.91519186  0.68054931    -0.18200
C2608       C  0.70452749  0.92948309  0.66965388     0.04200
C2609       C  0.70687429  0.92636878  0.64920089     0.18400
C2610       C  0.69814650  0.91005718  0.64009470    -0.19600
C2611       C  0.71818623  0.93938759  0.63804230    -0.20900
C2612       C  0.72761366  0.95518565  0.64689839    -0.19400
C2613       C  0.72527629  0.95882385  0.66696887     0.19800
C2614       C  0.71309289  0.94641442  0.67846159     0.01900
C2615       C  0.70990564  0.95154295  0.69827119    -0.14200
C2616       C  0.71932508  0.96763248  0.70660547    -0.11900
C2617       C  0.73236724  0.97905878  0.69561634     0.01400
C2618       C  0.73508603  0.97474648  0.67569081    -0.24100
H2619       H  0.67908240  0.88789441  0.68056702     0.09400
H2620       H  0.69267507  0.91595554  0.69625331     0.13000
H2621       H  0.69948363  0.90832266  0.62436130     0.11700
H2622       H  0.72014491  0.93706692  0.62244469     0.12900
H2623       H  0.73667877  0.96469905  0.63796446     0.12000
H2624       H  0.70006487  0.94351991  0.70767387     0.09000
H2625       H  0.71674957  0.97081781  0.72195114     0.12300
H2626       H  0.74480749  0.98380446  0.66696208     0.14200
C2627       C  0.63515595  0.84412923  0.64890490    -0.01300
C2628       C  0.62063506  0.85555915  0.65796813    -0.09400
C2629       C  0.60443999  0.84684113  0.66698936    -0.18200
C2630       C  0.60196906  0.82625679  0.66696959     0.04200
C2631       C  0.61605183  0.81480110  0.65680350     0.18400
C2632       C  0.63255860  0.82368783  0.64834150    -0.19600
C2633       C  0.61373960  0.79446486  0.65532366    -0.20900
C2634       C  0.59789146  0.78515472  0.66409922    -0.19400
C2635       C  0.58431286  0.79587084  0.67509998     0.19800
C2636       C  0.58618581  0.81658667  0.67678591     0.01900
C2637       C  0.57260456  0.82659748  0.68880648    -0.14200
C2638       C  0.55809985  0.81641220  0.69900891    -0.11900
C2639       C  0.55634649  0.79602643  0.69729715     0.01400
C2640       C  0.56923554  0.78588622  0.68497336    -0.24100
H2641       H  0.62166638  0.87138814  0.65808164     0.09400
H2642       H  0.59398651  0.85663563  0.67364129     0.13000
H2643       H  0.64363534  0.81444000  0.64173529     0.11700
H2644       H  0.62430237  0.78567463  0.64735113     0.12900
H2645       H  0.59656146  0.76938033  0.66273477     0.12000
H2646       H  0.57317792  0.84220804  0.69113392     0.09000
H2647       H  0.54823447  0.82456421  0.70841128     0.12300
H2648       H  0.56807817  0.77007696  0.68374923     0.14200
C2649       C  0.69057800  0.84251032  0.60046662    -0.01300
C2650       C  0.67980165  0.83442291  0.58494619    -0.09400
C2651       C  0.68914502  0.82460072  0.56966260    -0.18200
C2652       C  0.70977985  0.82269337  0.56922181     0.04200
C2653       C  0.72072975  0.83132374  0.58471935     0.18400
C2654       C  0.71109625  0.84086293  0.60021533    -0.19600
C2655       C  0.74123924  0.83045455  0.58462645    -0.20900
C2656       C  0.75116084  0.82139798  0.56929862    -0.19400
C2657       C  0.74080163  0.81255609  0.55394235     0.19800
C2658       C  0.71994004  0.81273913  0.55386847     0.01900
C2659       C  0.71016722  0.80276684  0.53852627    -0.14200
C2660       C  0.72066293  0.79324417  0.52380933    -0.11900
C2661       C  0.74115079  0.79363012  0.52365196     0.01400
C2662       C  0.75117521  0.80337310  0.53869713    -0.24100
H2663       H  0.66399707  0.83587117  0.58444941     0.09400
H2664       H  0.67978598  0.81897787  0.55824861     0.13000
H2665       H  0.71963638  0.84682996  0.61222109     0.11700
H2666       H  0.74968151  0.83703241  0.59637961     0.12900
H2667       H  0.76705132  0.82117370  0.56953614     0.12000
H2668       H  0.69443172  0.80179379  0.53759892     0.09000
H2669       H  0.71268219  0.78576348  0.51228295     0.12300
H2670       H  0.76708055  0.80344719  0.53873876     0.14200
C2671       C  0.68884892  0.69646834  0.86167058    -0.01300
C2672       C  0.68756376  0.71696707  0.86295760    -0.09400
C2673       C  0.69644836  0.72717275  0.87829964    -0.18200
C2674       C  0.70747739  0.71726579  0.89277821     0.04200
C2675       C  0.70908102  0.69655165  0.89131557     0.18400
C2676       C  0.69940829  0.68637985  0.87623129    -0.19600
C2677       C  0.72070442  0.68613153  0.90465650    -0.20900
C2678       C  0.73116572  0.69591420  0.91917120    -0.19400
C2679       C  0.72974603  0.71628898  0.92111716     0.19800
C2680       C  0.71743550  0.72720864  0.90830381     0.01900
C2681       C  0.71563525  0.74759600  0.91161957    -0.14200
C2682       C  0.72615078  0.75681032  0.92656747    -0.11900
C2683       C  0.73895887  0.74613538  0.93855190     0.01400
C2684       C  0.74058704  0.72583298  0.93582254    -0.24100
H2685       H  0.68013536  0.72537802  0.85173553     0.09400
H2686       H  0.69500481  0.74289582  0.87798582     0.13000
H2687       H  0.70035069  0.67053620  0.87578909     0.11700
H2688       H  0.72207364  0.67033853  0.90358233     0.12900
H2689       H  0.74037267  0.68746843  0.92899978     0.12000
H2690       H  0.70607901  0.75680818  0.90304893     0.09000
H2691       H  0.72449703  0.77248298  0.92851812     0.12300
H2692       H  0.75017664  0.71739590  0.94530044     0.14200
C2693       C  0.63815160  0.69234526  0.80833523    -0.01300
C2694       C  0.62252352  0.69978608  0.81939686    -0.09400
C2695       C  0.60672545  0.70910160  0.81035633    -0.18200
C2696       C  0.60592024  0.71120931  0.78976171     0.04200
C2697       C  0.62122501  0.70267894  0.77847760     0.18400
C2698       C  0.63721658  0.69358606  0.78779791    -0.19600
C2699       C  0.62053508  0.70340501  0.75797051    -0.20900
C2700       C  0.60490397  0.71238313  0.74841330    -0.19400
C2701       C  0.58992197  0.72142931  0.75913305     0.19800
C2702       C  0.59042944  0.72135778  0.77997340     0.01900
C2703       C  0.57565217  0.73183743  0.79009207    -0.14200
C2704       C  0.56079727  0.74160147  0.77993040    -0.11900
C2705       C  0.55993633  0.74090200  0.75946799     0.01400
C2706       C  0.57452009  0.73077541  0.74913498    -0.24100
H2707       H  0.62249588  0.69843409  0.83521980     0.09400
H2708       H  0.59526195  0.71430374  0.81989231     0.13000
H2709       H  0.64917659  0.68790253  0.77901875     0.11700
H2710       H  0.63208480  0.69684131  0.74925708     0.12900
H2711       H  0.60469106  0.71252241  0.73252162     0.12000
H2712       H  0.57537668  0.73309481  0.80583685     0.09000
H2713       H  0.54971575  0.74947354  0.78814188     0.12300
H2714       H  0.57409672  0.73054204  0.73323626     0.14200
C2715       C  0.69281506  0.64279120  0.81140939    -0.01300
C2716       C  0.71335216  0.64186501  0.81227242    -0.09400
C2717       C  0.72349787  0.62586215  0.80468773    -0.18200
C2718       C  0.71345290  0.61028797  0.79547701     0.04200
C2719       C  0.69270575  0.61155179  0.79392880     0.18400
C2720       C  0.68260364  0.62744473  0.80223799    -0.19600
C2721       C  0.68220203  0.59713217  0.78377985    -0.20900
C2722       C  0.69195004  0.58174533  0.77465491    -0.19400
C2723       C  0.71234561  0.58001325  0.77611898     0.19800
C2724       C  0.72332363  0.59386303  0.78714968     0.01900
C2725       C  0.74370670  0.59067388  0.78932994    -0.14200
C2726       C  0.75294527  0.57504791  0.77994739    -0.11900
C2727       C  0.74223364  0.56225527  0.76802566     0.01400
C2728       C  0.72188741  0.56460091  0.76644457    -0.24100
H2729       H  0.72178593  0.65376460  0.81852787     0.09400
H2730       H  0.73925677  0.62644825  0.80568458     0.13000
H2731       H  0.66673520  0.62782851  0.80150044     0.11700
H2732       H  0.66638773  0.59803117  0.78246615     0.12900
H2733       H  0.68347436  0.57109842  0.76644437     0.12000
H2734       H  0.75289370  0.59993542  0.79824732     0.09000
H2735       H  0.76865621  0.57333204  0.78156786     0.12300
H2736       H  0.71345417  0.55443918  0.75758041     0.14200
loop_ 
_geom_bond_atom_site_label_1 
_geom_bond_atom_site_label_2 
_geom_bond_distance 
_geom_bond_site_symmetry_2 
_ccdc_geom_bond_type 
C1            C2   1.406       .  A
C1            C6   1.405       .  A
C1         C2671   1.495       .  S
C2            C3   1.406       .  A
C2            H7   1.082       .  S
C3            C4   1.405       .  A
C3         C2693   1.489       .  S
C4            C5   1.407       .  A
C4            H8   1.082       .  S
C5            C6   1.406       .  A
C5         C2715   1.490       .  S
C6            H9   1.081       .  S
C10          C11   1.406       .  A
C10          C15   1.408       .  A
C10        C2627   1.496       .  S
C11          C12   1.404       .  A
C11          H16   1.081       .  S
C12          C13   1.404       .  A
C12        C2649   1.488       .  S
C13          C14   1.406       .  A
C13          H17   1.082       .  S
C14          C15   1.409       .  A
C14        C2605   1.493       .  S
C15          H18   1.081       .  S
C19          C20   1.405       .  A
C19          C24   1.403       .  A
C19        C2583   1.490       .  S
C20          C21   1.409       .  A
C20          H25   1.081       .  S
C21          C22   1.406       .  A
C21        C2561   1.490       .  S
C22          C23   1.405       .  A
C22          H26   1.082       .  S
C23          C24   1.403       .  A
C23        C2539   1.491       .  S
C24          H27   1.082       .  S
C28          C29   1.405       .  A
C28          C33   1.408       .  A
C28        C2529   1.493       .  S
C29          C30   1.405       .  A
C29          H34   1.082       .  S
C30          C31   1.406       .  A
C30        C2495   1.491       .  S
C31          C32   1.408       .  A
C31          H35   1.082       .  S
C32          C33   1.408       .  A
C32        C2473   1.495       .  S
C33          H36   1.082       .  S
O37         Ni45   1.916       .  S
O37          C47   1.282       .  A
O38         Ni45   1.918   1_554  S
O38          C48   1.282       .  A
O39         Ni45   1.913       .  S
O39          C49   1.280       .  A
O40         Ni45   1.918   1_554  S
O40          C50   1.281       .  A
O41         Ni46   1.921       .  S
O41          C50   1.282   1_556  A
O42         Ni46   1.925       .  S
O42          C49   1.284       .  A
O43         Ni46   1.918       .  S
O43          C48   1.281   1_556  A
O44         Ni46   1.919       .  S
O44          C47   1.282       .  A
Ni45        Ni46   2.388       .  S
C47        C2683   1.479       .  S
C48        C2429   1.478       .  S
C49        C2517   1.481       .  S
C50        C2451   1.475       .  S
O51         Ni59   1.921   1_655  S
O51          C61   1.282       .  A
O52         Ni59   1.920       .  S
O52          C62   1.282       .  A
O53         Ni59   1.920   1_655  S
O53          C63   1.282       .  A
O54         Ni59   1.912       .  S
O54          C64   1.280       .  A
O55         Ni60   1.919       .  S
O55          C64   1.282       .  A
O56         Ni60   1.917   1_655  S
O56          C63   1.281       .  A
O57         Ni60   1.912       .  S
O57          C62   1.280       .  A
O58         Ni60   1.909   1_655  S
O58          C61   1.280       .  A
Ni59        Ni60   2.388       .  S
C61        C2551   1.478       .  S
C62        C2385   1.475       .  S
C63        C2485   1.478       .  S
C64        C2419   1.478       .  S
O65         Ni73   1.923       .  S
O65          C75   1.282   1_545  A
O66         Ni73   1.918       .  S
O66          C76   1.281       .  A
O67         Ni73   1.922       .  S
O67          C77   1.282   1_545  A
O68         Ni73   1.916       .  S
O68          C78   1.281       .  A
O69         Ni74   1.917       .  S
O69          C78   1.282       .  A
O70         Ni74   1.913       .  S
O70          C77   1.280   1_545  A
O71         Ni74   1.918       .  S
O71          C76   1.282       .  A
O72         Ni74   1.911       .  S
O72          C75   1.281   1_545  A
Ni73        Ni74   2.389       .  S
C75        C2617   1.478       .  S
C76        C2341   1.476       .  S
C77        C2507   1.475       .  S
C78        C2363   1.478       .  S
C79          C80   1.407       .  A
C79          C84   1.407       .  A
C79        C2297   1.491       .  S
C80          C81   1.406       .  A
C80          H85   1.082       .  S
C81          C82   1.408       .  A
C81        C2319   1.493       .  S
C82          C83   1.405       .  A
C82          H86   1.082       .  S
C83          C84   1.405       .  A
C83        C2463   1.491       .  S
C84          H87   1.082       .  S
C88          C89   1.405       .  A
C88          C93   1.403       .  A
C88        C2253   1.487       .  S
C89          C90   1.409       .  A
C89          H94   1.082       .  S
C90          C91   1.407       .  A
C90        C2375   1.494       .  S
C91          C92   1.405       .  A
C91          H95   1.082       .  S
C92          C93   1.402       .  A
C92        C2287   1.485       .  S
C93          H96   1.082       .  S
C97          C98   1.404       .  A
C97         C102   1.404       .  A
C97        C2407   1.490       .  S
C98          C99   1.405       .  A
C98         H103   1.083       .  S
C99         C100   1.407       .  A
C99        C2209   1.483       .  S
C100        C101   1.405       .  A
C100        H104   1.083       .  S
C101        C102   1.403       .  A
C101       C2231   1.487       .  S
C102        H105   1.083       .  S
C106        C107   1.402       .  A
C106        C111   1.402       .  A
C106       C2165   1.486       .  S
C107        C108   1.407       .  A
C107        H112   1.081       .  S
C108        C109   1.409       .  A
C108       C2143   1.496       .  S
C109        C110   1.406       .  A
C109        H113   1.080       .  S
C110        C111   1.404       .  A
C110       C2187   1.488       .  S
C111        H114   1.083       .  S
O115       Ni123   1.911       .  S
O115        C125   1.280   1_455  A
O116       Ni123   1.915       .  S
O116        C126   1.281       .  A
O117       Ni123   1.913       .  S
O117        C127   1.281   1_455  A
O118       Ni123   1.919       .  S
O118        C128   1.282       .  A
O119       Ni124   1.906       .  S
O119        C128   1.280       .  A
O120       Ni124   1.914       .  S
O120        C127   1.281   1_455  A
O121       Ni124   1.918       .  S
O121        C126   1.282       .  A
O122       Ni124   1.922       .  S
O122        C125   1.283   1_455  A
Ni123      Ni124   2.389       .  S
C125       C2121   1.477       .  S
C126       C2077   1.475       .  S
C127       C2155   1.477       .  S
C128       C2111   1.472       .  S
C129        C130   1.407       .  A
C129        C134   1.409       .  A
C129       C2441   1.493       .  S
C130        C131   1.403       .  A
C130        H135   1.082       .  S
C131        C132   1.402       .  A
C131       C2067   1.485       .  S
C132        C133   1.404       .  A
C132        H136   1.083       .  S
C133        C134   1.408       .  A
C133       C2133   1.491       .  S
C134        H137   1.082       .  S
C138        C139   1.404       .  A
C138        C143   1.404       .  A
C138       C1989   1.486       .  S
C139        C140   1.406       .  A
C139        H144   1.083       .  S
C140        C141   1.407       .  A
C140       C2011   1.489       .  S
C141        C142   1.405       .  A
C141        H145   1.082       .  S
C142        C143   1.404       .  A
C142       C2045   1.488       .  S
C143        H146   1.082       .  S
O147       Ni155   1.919       .  S
O147        C157   1.282       .  A
O148       Ni155   1.912   1_565  S
O148        C158   1.280       .  A
O149       Ni155   1.916       .  S
O149        C159   1.281       .  A
O150       Ni155   1.922   1_565  S
O150        C160   1.283       .  A
O151       Ni156   1.905   1_565  S
O151        C160   1.279       .  A
O152       Ni156   1.910       .  S
O152        C159   1.281       .  A
O153       Ni156   1.919   1_565  S
O153        C158   1.282       .  A
O154       Ni156   1.915       .  S
O154        C157   1.281       .  A
Ni155      Ni156   2.390       .  S
C157       C1945   1.476       .  S
C158       C2001   1.474       .  S
C159       C1979   1.472       .  S
C160       C2055   1.472       .  S
C161        C162   1.408       .  A
C161        C166   1.404       .  A
C161       C1923   1.491       .  S
C162        C163   1.408       .  A
C162        H167   1.082       .  S
C163        C164   1.409       .  A
C163       C1879   1.495       .  S
C164        C165   1.406       .  A
C164        H168   1.082       .  S
C165        C166   1.403       .  A
C165       C1901   1.491       .  S
C166        H169   1.081       .  S
O170       Ni178   1.914       .  S
O170        C180   1.281   1_545  A
O171       Ni178   1.918       .  S
O171        C181   1.281       .  A
O172       Ni178   1.916       .  S
O172        C182   1.282   1_545  A
O173       Ni178   1.918       .  S
O173        C183   1.281       .  A
O174       Ni179   1.923       .  S
O174        C183   1.283       .  A
O175       Ni179   1.926       .  S
O175        C182   1.283   1_545  A
O176       Ni179   1.907       .  S
O176        C181   1.279       .  A
O177       Ni179   1.917       .  S
O177        C180   1.281   1_545  A
Ni178      Ni179   2.389       .  S
C180       C1869   1.475       .  S
C181       C1835   1.468       .  S
C182       C1891   1.482       .  S
C183       C1813   1.479       .  S
C184        C185   1.406       .  A
C184        C189   1.405       .  A
C184       C1857   1.489       .  S
C185        C186   1.407       .  A
C185        H190   1.083       .  S
C186        C187   1.407       .  A
C186       C2397   1.489       .  S
C187        C188   1.405       .  A
C187        H191   1.081       .  S
C188        C189   1.405       .  A
C188       C1791   1.494       .  S
C189        H192   1.082       .  S
C193        C194   1.405       .  A
C193        C198   1.404       .  A
C193       C1725   1.491       .  S
C194        C195   1.408       .  A
C194        H199   1.080       .  S
C195        C196   1.409       .  A
C195       C1747   1.499       .  S
C196        C197   1.408       .  A
C196        H200   1.081       .  S
C197        C198   1.406       .  A
C197       C1769   1.492       .  S
C198        H201   1.082       .  S
O202       Ni210   1.915       .  S
O202        C212   1.282       .  A
O203       Ni210   1.911   1_554  S
O203        C213   1.280       .  A
O204       Ni210   1.908       .  S
O204        C214   1.280       .  A
O205       Ni210   1.911   1_554  S
O205        C215   1.281       .  A
O206       Ni211   1.915   1_554  S
O206        C215   1.281       .  A
O207       Ni211   1.921       .  S
O207        C214   1.283       .  A
O208       Ni211   1.914   1_554  S
O208        C213   1.281       .  A
O209       Ni211   1.920       .  S
O209        C212   1.282       .  A
Ni210      Ni211   2.389       .  S
C212       C1803   1.479       .  S
C213       C1703   1.470       .  S
C214       C1737   1.474       .  S
C215       C1681   1.473       .  S
C216        C217   1.403       .  A
C216        C221   1.404       .  A
C216       C1637   1.489       .  S
C217        C218   1.405       .  A
C217        H222   1.082       .  S
C218        C219   1.406       .  A
C218       C1659   1.490       .  S
C219        C220   1.407       .  A
C219        H223   1.082       .  S
C220        C221   1.406       .  A
C220       C1615   1.489       .  S
C221        H224   1.081       .  S
O225       Ni233   1.922   1_655  S
O225        C235   1.283       .  A
O226       Ni233   1.922       .  S
O226        C236   1.282       .  A
O227       Ni233   1.916   1_655  S
O227        C237   1.281       .  A
O228       Ni233   1.922       .  S
O228        C238   1.283       .  A
O229       Ni234   1.918       .  S
O229        C238   1.282       .  A
O230       Ni234   1.920   1_655  S
O230        C237   1.282       .  A
O231       Ni234   1.912       .  S
O231        C236   1.281       .  A
O232       Ni234   1.913   1_655  S
O232        C235   1.281       .  A
Ni233      Ni234   2.387       .  S
C235       C1593   1.479       .  S
C236       C1571   1.480       .  S
C237       C1627   1.477       .  S
C238       C1549   1.482       .  S
C239        C240   1.406       .  A
C239        C244   1.407       .  A
C239       C2353   1.492       .  S
C240        C241   1.405       .  A
C240        H245   1.082       .  S
C241        C242   1.405       .  A
C241       C1527   1.493       .  S
C242        C243   1.407       .  A
C242        H246   1.081       .  S
C243        C244   1.409       .  A
C243       C1605   1.494       .  S
C244        H247   1.082       .  S
C248        C249   1.409       .  A
C248        C253   1.406       .  A
C248       C1505   1.493       .  S
C249        C250   1.409       .  A
C249        H254   1.080       .  S
C250        C251   1.405       .  A
C250       C1483   1.494       .  S
C251        C252   1.402       .  A
C251        H255   1.082       .  S
C252        C253   1.403       .  A
C252       C1461   1.485       .  S
C253        H256   1.083       .  S
O257       Ni265   1.916       .  S
O257        C267   1.282   1_556  A
O258       Ni265   1.912       .  S
O258        C268   1.280       .  A
O259       Ni265   1.922       .  S
O259        C269   1.282   1_556  A
O260       Ni265   1.919       .  S
O260        C270   1.282       .  A
O261       Ni266   1.910       .  S
O261        C270   1.280       .  A
O262       Ni266   1.913       .  S
O262        C269   1.281   1_556  A
O263       Ni266   1.923       .  S
O263        C268   1.283       .  A
O264       Ni266   1.914       .  S
O264        C267   1.281   1_556  A
Ni265      Ni266   2.389       .  S
C267       C1439   1.473       .  S
C268       C1539   1.477       .  S
C269       C1417   1.475       .  S
C270       C1473   1.472       .  S
C271        C272   1.404       .  A
C271        C276   1.407       .  A
C271       C1395   1.491       .  S
C272        C273   1.402       .  A
C272        H277   1.082       .  S
C273        C274   1.403       .  A
C273       C1373   1.486       .  S
C274        C275   1.408       .  A
C274        H278   1.082       .  S
C275        C276   1.408       .  A
C275       C1451   1.492       .  S
C276        H279   1.081       .  S
C280        C281   1.409       .  A
C280        C285   1.406       .  A
C280       C1363   1.488       .  S
C281        C282   1.406       .  A
C281        H286   1.081       .  S
C282        C283   1.404       .  A
C282       C1329   1.493       .  S
C283        C284   1.400       .  A
C283        H287   1.083       .  S
C284        C285   1.401       .  A
C284       C1715   1.480       .  S
C285        H288   1.083       .  S
C289        C290   1.407       .  A
C289        C294   1.402       .  A
C289       C1307   1.488       .  S
C290        C291   1.407       .  A
C290        H295   1.082       .  S
C291        C292   1.408       .  A
C291       C1285   1.491       .  S
C292        C293   1.404       .  A
C292        H296   1.082       .  S
C293        C294   1.404       .  A
C293       C1967   1.489       .  S
C294        H297   1.082       .  S
C298        C299   1.403       .  A
C298        C303   1.407       .  A
C298       C1263   1.488       .  S
C299        C300   1.402       .  A
C299        H304   1.082       .  S
C300        C301   1.402       .  A
C300       C1231   1.482       .  S
C301        C302   1.404       .  A
C301        H305   1.082       .  S
C302        C303   1.408       .  A
C302       C1241   1.491       .  S
C303        H306   1.082       .  S
C307        C308   1.400       .  A
C307        C312   1.400       .  A
C307       C1197   1.479       .  S
C308        C309   1.403       .  A
C308        H313   1.083       .  S
C309        C310   1.406       .  A
C309       C2099   1.486       .  S
C310        C311   1.407       .  A
C310        H314   1.082       .  S
C311        C312   1.405       .  A
C311       C1693   1.484       .  S
C312        H315   1.083       .  S
C316        C317   1.406       .  A
C316        C321   1.408       .  A
C316       C1175   1.492       .  S
C317        C318   1.404       .  A
C317        H322   1.082       .  S
C318        C319   1.404       .  A
C318       C1165   1.489       .  S
C319        C320   1.405       .  A
C319        H323   1.081       .  S
C320        C321   1.407       .  A
C320       C1143   1.493       .  S
C321        H324   1.082       .  S
O325       Ni333   1.913       .  S
O325        C335   1.281       .  A
O326       Ni333   1.908       .  S
O326        C336   1.280   1_545  A
O327       Ni333   1.914       .  S
O327        C337   1.281       .  A
O328       Ni333   1.909   1_565  S
O328        C338   1.280       .  A
O329       Ni334   1.913   1_565  S
O329        C338   1.280       .  A
O330       Ni334   1.905       .  S
O330        C337   1.279       .  A
O331       Ni334   1.924   1_565  S
O331        C336   1.283       .  A
O332       Ni334   1.917       .  S
O332        C335   1.281       .  A
Ni333      Ni334   2.391       .  S
C335       C1121   1.472       .  S
C336       C1131   1.477       .  S
C337       C1219   1.466       .  S
C338       C1209   1.468       .  S
C339        C340   1.409       .  A
C339        C344   1.404       .  A
C339       C1065   1.490       .  S
C340        C341   1.409       .  A
C340        H345   1.081       .  S
C341        C342   1.405       .  A
C341       C1087   1.491       .  S
C342        C343   1.401       .  A
C342        H346   1.082       .  S
C343        C344   1.399       .  A
C343       C1847   1.482       .  S
C344        H347   1.082       .  S
C348        C349   1.406       .  A
C348        C353   1.405       .  A
C348       C1583   1.494       .  S
C349        C350   1.408       .  A
C349        H354   1.081       .  S
C350        C351   1.406       .  A
C350       C1033   1.497       .  S
C351        C352   1.407       .  A
C351        H355   1.082       .  S
C352        C353   1.406       .  A
C352       C1043   1.489       .  S
C353        H356   1.081       .  S
C357        C358   1.403       .  A
C357        C362   1.408       .  A
C357        C989   1.490       .  S
C358        C359   1.404       .  A
C358        H363   1.081       .  S
C359        C360   1.406       .  A
C359        C999   1.494       .  S
C360        C361   1.407       .  A
C360        H364   1.081       .  S
C361        C362   1.409       .  A
C361        C955   1.493       .  S
C362        H365   1.081       .  S
C366        C367   1.407       .  A
C366        C371   1.405       .  A
C366       C1957   1.491       .  S
C367        C368   1.408       .  A
C367        H372   1.081       .  S
C368        C369   1.409       .  A
C368        C933   1.497       .  S
C369        C370   1.406       .  A
C369        H373   1.082       .  S
C370        C371   1.404       .  A
C370       C1429   1.490       .  S
C371        H374   1.082       .  S
C375        C376   1.409       .  A
C375        C380   1.405       .  A
C375        C911   1.494       .  S
C376        C377   1.411       .  A
C376        H381   1.080       .  S
C377        C378   1.407       .  A
C377        C901   1.498       .  S
C378        C379   1.404       .  A
C378        H382   1.082       .  S
C379        C380   1.402       .  A
C379        C867   1.487       .  S
C380        H383   1.082       .  S
O384       Ni392   1.911       .  S
O384        C394   1.280   1_455  A
O385       Ni392   1.910       .  S
O385        C395   1.281       .  A
O386       Ni392   1.919       .  S
O386        C396   1.282   1_455  A
O387       Ni392   1.921       .  S
O387        C397   1.282       .  A
O388       Ni393   1.918       .  S
O388        C397   1.282       .  A
O389       Ni393   1.919   1_655  S
O389        C396   1.282       .  A
O390       Ni393   1.924       .  S
O390        C395   1.282       .  A
O391       Ni393   1.924       .  S
O391        C394   1.283   1_455  A
Ni392      Ni393   2.387       .  S
C394        C879   1.478       .  S
C395        C845   1.479       .  S
C396        C945   1.481       .  S
C397        C967   1.479       .  S
C398        C399   1.406       .  A
C398        C403   1.403       .  A
C398        C801   1.486       .  S
C399        C400   1.406       .  A
C399        H404   1.082       .  S
C400        C401   1.406       .  A
C400       C2089   1.490       .  S
C401        C402   1.404       .  A
C401        H405   1.082       .  S
C402        C403   1.403       .  A
C402        C823   1.485       .  S
C403        H406   1.083       .  S
C407        C408   1.405       .  A
C407        C412   1.403       .  A
C407       C1109   1.485       .  S
C408        C409   1.406       .  A
C408        H413   1.083       .  S
C409        C410   1.409       .  A
C409        C857   1.492       .  S
C410        C411   1.406       .  A
C410        H414   1.082       .  S
C411        C412   1.403       .  A
C411        C791   1.490       .  S
C412        H415   1.082       .  S
C416        C417   1.408       .  A
C416        C421   1.404       .  A
C416        C769   1.493       .  S
C417        C418   1.408       .  A
C417        H422   1.082       .  S
C418        C419   1.407       .  A
C418        C713   1.494       .  S
C419        C420   1.405       .  A
C419        H423   1.081       .  S
C420        C421   1.405       .  A
C420        C735   1.489       .  S
C421        H424   1.082       .  S
C425        C426   1.408       .  A
C425        C430   1.404       .  A
C425       C1825   1.493       .  S
C426        C427   1.413       .  A
C426        H431   1.082       .  S
C427        C428   1.413       .  A
C427       C1561   1.500       .  S
C428        C429   1.407       .  A
C428        H432   1.082       .  S
C429        C430   1.404       .  A
C429        C703   1.498       .  S
C430        H433   1.082       .  S
C434        C435   1.407       .  A
C434        C439   1.406       .  A
C434        C625   1.487       .  S
C435        C436   1.406       .  A
C435        H440   1.081       .  S
C436        C437   1.406       .  A
C436        C647   1.494       .  S
C437        C438   1.403       .  A
C437        H441   1.082       .  S
C438        C439   1.404       .  A
C438        C669   1.489       .  S
C439        H442   1.083       .  S
O443       Ni451   1.921   1_554  S
O443        C453   1.282       .  A
O444       Ni451   1.913       .  S
O444        C454   1.281       .  A
O445       Ni451   1.926   1_554  S
O445        C455   1.283       .  A
O446       Ni451   1.921       .  S
O446        C456   1.282       .  A
O447       Ni452   1.923       .  S
O447        C456   1.283       .  A
O448       Ni452   1.917   1_554  S
O448        C455   1.281       .  A
O449       Ni452   1.919       .  S
O449        C454   1.282       .  A
O450       Ni452   1.913   1_554  S
O450        C453   1.281       .  A
Ni451      Ni452   2.388       .  S
C453        C779   1.478       .  S
C454        C637   1.474       .  S
C455        C725   1.482       .  S
C456        C691   1.483       .  S
O457       Ni465   1.914       .  S
O457        C467   1.281       .  A
O458       Ni465   1.907       .  S
O458        C468   1.280       .  A
O459       Ni465   1.922       .  S
O459        C469   1.282       .  A
O460       Ni465   1.920       .  S
O460        C470   1.283       .  A
O461       Ni466   1.907       .  S
O461        C470   1.280       .  A
O462       Ni466   1.906       .  S
O462        C469   1.280       .  A
O463       Ni466   1.920       .  S
O463        C468   1.282       .  A
O464       Ni466   1.916       .  S
O464        C467   1.282       .  A
Ni465      Ni466   2.388       .  S
C467        C813   1.477       .  S
C468        C747   1.475       .  S
C469       C1341   1.476       .  S
C470       C1011   1.477       .  S
O471       Ni479   1.908       .  S
O471        C481   1.280       .  A
O472       Ni479   1.909       .  S
O472        C482   1.280       .  A
O473       Ni479   1.925       .  S
O473        C483   1.283       .  A
O474       Ni479   1.921       .  S
O474        C484   1.282       .  A
O475       Ni480   1.912       .  S
O475        C484   1.281       .  A
O476       Ni480   1.905       .  S
O476        C483   1.279       .  A
O477       Ni480   1.925       .  S
O477        C482   1.283       .  A
O478       Ni480   1.925       .  S
O478        C481   1.283       .  A
Ni479      Ni480   2.388       .  S
C481        C757   1.478       .  S
C482       C1297   1.477       .  S
C483       C1253   1.475       .  S
C484       C1385   1.475       .  S
O485       Ni493   1.917       .  S
O485        C495   1.281       .  A
O486       Ni493   1.913       .  S
O486        C496   1.281       .  A
O487       Ni493   1.913       .  S
O487        C497   1.281       .  A
O488       Ni493   1.922       .  S
O488        C498   1.282       .  A
O489       Ni494   1.912       .  S
O489        C498   1.281       .  A
O490       Ni494   1.918       .  S
O490        C497   1.281       .  A
O491       Ni494   1.915       .  S
O491        C496   1.281       .  A
O492       Ni494   1.913       .  S
O492        C495   1.281       .  A
Ni493      Ni494   2.389       .  S
C495        C977   1.475       .  S
C496       C1077   1.473       .  S
C497       C1275   1.475       .  S
C498       C1021   1.481       .  S
O499       Ni507   1.918       .  S
O499        C509   1.281       .  A
O500       Ni507   1.914       .  S
O500        C510   1.281       .  A
O501       Ni507   1.921       .  S
O501        C511   1.282       .  A
O502       Ni507   1.916       .  S
O502        C512   1.282       .  A
O503       Ni508   1.910       .  S
O503        C512   1.280       .  A
O504       Ni508   1.909       .  S
O504        C511   1.280       .  A
O505       Ni508   1.920       .  S
O505        C510   1.283       .  A
O506       Ni508   1.914       .  S
O506        C509   1.281       .  A
Ni507      Ni508   2.389       .  S
C509       C2243   1.473       .  S
C510       C1187   1.481       .  S
C511       C1913   1.475       .  S
C512        C835   1.472       .  S
O513       Ni521   1.916       .  S
O513        C523   1.282       .  A
O514       Ni521   1.919       .  S
O514        C524   1.282       .  A
O515       Ni521   1.912       .  S
O515        C525   1.280       .  A
O516       Ni521   1.918       .  S
O516        C526   1.281       .  A
O517       Ni522   1.912       .  S
O517        C526   1.281       .  A
O518       Ni522   1.917       .  S
O518        C525   1.282       .  A
O519       Ni522   1.914       .  S
O519        C524   1.281       .  A
O520       Ni522   1.915       .  S
O520        C523   1.281       .  A
Ni521      Ni522   2.389       .  S
C523       C2275   1.477       .  S
C524        C923   1.479       .  S
C525       C1649   1.474       .  S
C526       C1319   1.473       .  S
O527       Ni535   1.914       .  S
O527        C537   1.281       .  A
O528       Ni535   1.915       .  S
O528        C538   1.281       .  A
O529       Ni535   1.916       .  S
O529        C539   1.281       .  A
O530       Ni535   1.911       .  S
O530        C540   1.280       .  A
O531       Ni536   1.921       .  S
O531        C540   1.282       .  A
O532       Ni536   1.915       .  S
O532        C539   1.281       .  A
O533       Ni536   1.920       .  S
O533        C538   1.283       .  A
O534       Ni536   1.919       .  S
O534        C537   1.282       .  A
Ni535      Ni536   2.388       .  S
C537       C1055   1.477       .  S
C538       C1759   1.480       .  S
C539        C681   1.476       .  S
C540       C2221   1.474       .  S
O541       Ni549   1.915       .  S
O541        C551   1.281       .  A
O542       Ni549   1.914       .  S
O542        C552   1.281       .  A
O543       Ni549   1.914       .  S
O543        C553   1.281       .  A
O544       Ni549   1.921       .  S
O544        C554   1.282       .  A
O545       Ni550   1.906       .  S
O545        C554   1.280       .  A
O546       Ni550   1.911       .  S
O546        C553   1.280       .  A
O547       Ni550   1.920       .  S
O547        C552   1.282       .  A
O548       Ni550   1.921       .  S
O548        C551   1.282       .  A
Ni549      Ni550   2.389       .  S
C551       C2309   1.477       .  S
C552        C889   1.479       .  S
C553       C2177   1.473       .  S
C554       C1407   1.474       .  S
O555       Ni563   1.912       .  S
O555        C565   1.281       .  A
O556       Ni563   1.915       .  S
O556        C566   1.281       .  A
O557       Ni563   1.922       .  S
O557        C567   1.282       .  A
O558       Ni563   1.917       .  S
O558        C568   1.282       .  A
O559       Ni564   1.911       .  S
O559        C568   1.280       .  A
O560       Ni564   1.904       .  S
O560        C567   1.280       .  A
O561       Ni564   1.916       .  S
O561        C566   1.282       .  A
O562       Ni564   1.917       .  S
O562        C565   1.282       .  A
Ni563      Ni564   2.389       .  S
C565       C1099   1.475       .  S
C566       C1495   1.478       .  S
C567        C659   1.475       .  S
C568       C2265   1.472       .  S
O569       Ni577   1.911       .  S
O569        C579   1.281       .  A
O570       Ni577   1.911       .  S
O570        C580   1.281       .  A
O571       Ni577   1.918       .  S
O571        C581   1.282       .  A
O572       Ni577   1.918       .  S
O572        C582   1.282       .  A
O573       Ni578   1.912       .  S
O573        C582   1.281       .  A
O574       Ni578   1.911       .  S
O574        C581   1.281       .  A
O575       Ni578   1.923       .  S
O575        C580   1.282       .  A
O576       Ni578   1.923       .  S
O576        C579   1.282       .  A
Ni577      Ni578   2.387       .  S
C579       C1153   1.478       .  S
C580       C2331   1.477       .  S
C581       C1351   1.476       .  S
C582       C2023   1.477       .  S
O583       Ni591   1.911       .  S
O583        C593   1.281       .  A
O584       Ni591   1.916       .  S
O584        C594   1.282       .  A
O585       Ni591   1.909       .  S
O585        C595   1.280       .  A
O586       Ni591   1.909       .  S
O586        C596   1.280       .  A
O587       Ni592   1.919       .  S
O587        C596   1.282       .  A
O588       Ni592   1.921       .  S
O588        C595   1.282       .  A
O589       Ni592   1.915       .  S
O589        C594   1.280       .  A
O590       Ni592   1.920       .  S
O590        C593   1.282       .  A
Ni591      Ni592   2.389       .  S
C593       C2199   1.475       .  S
C594       C2661   1.472       .  S
C595       C2033   1.474       .  S
C596       C2595   1.475       .  S
O597       Ni605   1.919       .  S
O597        C607   1.282       .  A
O598       Ni605   1.916       .  S
O598        C608   1.282       .  A
O599       Ni605   1.920       .  S
O599        C609   1.282       .  A
O600       Ni605   1.917       .  S
O600        C610   1.281       .  A
O601       Ni606   1.915       .  S
O601        C610   1.282       .  A
O602       Ni606   1.911       .  S
O602        C609   1.280       .  A
O603       Ni606   1.908       .  S
O603        C608   1.280       .  A
O604       Ni606   1.908       .  S
O604        C607   1.280       .  A
Ni605      Ni606   2.389       .  S
C607       C1671   1.476       .  S
C608       C2727   1.472       .  S
C609       C1517   1.476       .  S
C610       C2573   1.478       .  S
O611       Ni619   1.909       .  S
O611        C621   1.280       .  A
O612       Ni619   1.908       .  S
O612        C622   1.280       .  A
O613       Ni619   1.917       .  S
O613        C623   1.282       .  A
O614       Ni619   1.923       .  S
O614        C624   1.283       .  A
O615       Ni620   1.911       .  S
O615        C624   1.279       .  A
O616       Ni620   1.916       .  S
O616        C623   1.281       .  A
O617       Ni620   1.924       .  S
O617        C622   1.283       .  A
O618       Ni620   1.927       .  S
O618        C621   1.283       .  A
Ni619      Ni620   2.389       .  S
C621       C1781   1.477       .  S
C622       C2639   1.476       .  S
C623       C1935   1.476       .  S
C624       C2705   1.474       .  S
C625        C626   1.402       .  A
C625        C630   1.402       .  A
C626        C627   1.396       .  A
C626        H639   1.083       .  S
C627        C628   1.414       .  A
C627        H640   1.077       .  S
C628        C634   1.429       .  A
C628        C629   1.422       .  A
C629        C631   1.399       .  A
C629        C630   1.403       .  A
C630        H641   1.084       .  S
C631        C632   1.388       .  A
C631        H642   1.084       .  S
C632        C633   1.399       .  A
C632        H643   1.084       .  S
C633        C634   1.422       .  A
C633        C638   1.403       .  A
C634        C635   1.416       .  A
C635        C636   1.397       .  A
C635        H644   1.077       .  S
C636        C637   1.399       .  A
C636        H645   1.083       .  S
C637        C638   1.400       .  A
C638        H646   1.085       .  S
C647        C648   1.404       .  A
C647        C652   1.407       .  A
C648        C649   1.391       .  A
C648        H661   1.082       .  S
C649        C650   1.411       .  A
C649        H662   1.077       .  S
C650        C656   1.425       .  A
C650        C651   1.420       .  A
C651        C653   1.401       .  A
C651        C652   1.406       .  A
C652        H663   1.083       .  S
C653        C654   1.393       .  A
C653        H664   1.084       .  S
C654        C655   1.400       .  A
C654        H665   1.084       .  S
C655        C656   1.422       .  A
C655        C660   1.407       .  A
C656        C657   1.412       .  A
C657        C658   1.390       .  A
C657        H666   1.077       .  S
C658        C659   1.400       .  A
C658        H667   1.083       .  S
C659        C660   1.402       .  A
C660        H668   1.084       .  S
C669        C670   1.403       .  A
C669        C674   1.403       .  A
C670        C671   1.394       .  A
C670        H683   1.083       .  S
C671        C672   1.413       .  A
C671        H684   1.077       .  S
C672        C678   1.428       .  A
C672        C673   1.422       .  A
C673        C675   1.399       .  A
C673        C674   1.405       .  A
C674        H685   1.084       .  S
C675        C676   1.390       .  A
C675        H686   1.084       .  S
C676        C677   1.399       .  A
C676        H687   1.084       .  S
C677        C678   1.422       .  A
C677        C682   1.404       .  A
C678        C679   1.415       .  A
C679        C680   1.395       .  A
C679        H688   1.077       .  S
C680        C681   1.400       .  A
C680        H689   1.083       .  S
C681        C682   1.401       .  A
C682        H690   1.085       .  S
C691        C692   1.401       .  A
C691        C696   1.402       .  A
C692        C693   1.400       .  A
C692        H705   1.083       .  S
C693        C694   1.415       .  A
C693        H706   1.078       .  S
C694        C700   1.433       .  A
C694        C695   1.423       .  A
C695        C697   1.399       .  A
C695        C696   1.407       .  A
C696        H707   1.085       .  S
C697        C698   1.389       .  A
C697        H708   1.084       .  S
C698        C699   1.400       .  A
C698        H709   1.084       .  S
C699        C700   1.421       .  A
C699        C704   1.405       .  A
C700        C701   1.416       .  A
C701        C702   1.401       .  A
C701        H710   1.078       .  S
C702        C703   1.404       .  A
C702        H711   1.083       .  S
C703        C704   1.406       .  A
C704        H712   1.084       .  S
C713        C714   1.403       .  A
C713        C718   1.405       .  A
C714        C715   1.398       .  A
C714        H727   1.083       .  S
C715        C716   1.414       .  A
C715        H728   1.077       .  S
C716        C722   1.431       .  A
C716        C717   1.421       .  A
C717        C719   1.400       .  A
C717        C718   1.405       .  A
C718        H729   1.083       .  S
C719        C720   1.390       .  A
C719        H730   1.084       .  S
C720        C721   1.400       .  A
C720        H731   1.084       .  S
C721        C722   1.422       .  A
C721        C726   1.406       .  A
C722        C723   1.415       .  A
C723        C724   1.398       .  A
C723        H732   1.077       .  S
C724        C725   1.400       .  A
C724        H733   1.083       .  S
C725        C726   1.402       .  A
C726        H734   1.085       .  S
C735        C736   1.403       .  A
C735        C740   1.403       .  A
C736        C737   1.398       .  A
C736        H749   1.083       .  S
C737        C738   1.414       .  A
C737        H750   1.078       .  S
C738        C744   1.429       .  A
C738        C739   1.421       .  A
C739        C741   1.398       .  A
C739        C740   1.401       .  A
C740        H751   1.084       .  S
C741        C742   1.386       .  A
C741        H752   1.084       .  S
C742        C743   1.398       .  A
C742        H753   1.084       .  S
C743        C744   1.422       .  A
C743        C748   1.400       .  A
C744        C745   1.416       .  A
C745        C746   1.399       .  A
C745        H754   1.078       .  S
C746        C747   1.400       .  A
C746        H755   1.083       .  S
C747        C748   1.399       .  A
C748        H756   1.085       .  S
C757        C758   1.401       .  A
C757        C762   1.401       .  A
C758        C759   1.394       .  A
C758        H771   1.083       .  S
C759        C760   1.413       .  A
C759        H772   1.077       .  S
C760        C766   1.429       .  A
C760        C761   1.423       .  A
C761        C763   1.399       .  A
C761        C762   1.407       .  A
C762        H773   1.084       .  S
C763        C764   1.391       .  A
C763        H774   1.084       .  S
C764        C765   1.400       .  A
C764        H775   1.084       .  S
C765        C766   1.420       .  A
C765        C770   1.405       .  A
C766        C767   1.414       .  A
C767        C768   1.396       .  A
C767        H776   1.077       .  S
C768        C769   1.402       .  A
C768        H777   1.083       .  S
C769        C770   1.406       .  A
C770        H778   1.084       .  S
C779        C780   1.400       .  A
C779        C784   1.401       .  A
C780        C781   1.398       .  A
C780        H793   1.083       .  S
C781        C782   1.416       .  A
C781        H794   1.077       .  S
C782        C788   1.430       .  A
C782        C783   1.422       .  A
C783        C785   1.399       .  A
C783        C784   1.403       .  A
C784        H795   1.085       .  S
C785        C786   1.388       .  A
C785        H796   1.084       .  S
C786        C787   1.399       .  A
C786        H797   1.084       .  S
C787        C788   1.422       .  A
C787        C792   1.403       .  A
C788        C789   1.414       .  A
C789        C790   1.397       .  A
C789        H798   1.077       .  S
C790        C791   1.403       .  A
C790        H799   1.083       .  S
C791        C792   1.403       .  A
C792        H800   1.084       .  S
C801        C802   1.400       .  A
C801        C806   1.404       .  A
C802        C803   1.394       .  A
C802        H815   1.083       .  S
C803        C804   1.414       .  A
C803        H816   1.077       .  S
C804        C810   1.428       .  A
C804        C805   1.421       .  A
C805        C807   1.400       .  A
C805        C806   1.403       .  A
C806        H817   1.084       .  S
C807        C808   1.390       .  A
C807        H818   1.084       .  S
C808        C809   1.400       .  A
C808        H819   1.084       .  S
C809        C810   1.422       .  A
C809        C814   1.404       .  A
C810        C811   1.414       .  A
C811        C812   1.394       .  A
C811        H820   1.077       .  S
C812        C813   1.399       .  A
C812        H821   1.083       .  S
C813        C814   1.402       .  A
C814        H822   1.084       .  S
C823        C824   1.401       .  A
C823        C828   1.402       .  A
C824        C825   1.396       .  A
C824        H837   1.083       .  S
C825        C826   1.415       .  A
C825        H838   1.077       .  S
C826        C832   1.427       .  A
C826        C827   1.421       .  A
C827        C829   1.399       .  A
C827        C828   1.401       .  A
C828        H839   1.084       .  S
C829        C830   1.388       .  A
C829        H840   1.084       .  S
C830        C831   1.398       .  A
C830        H841   1.084       .  S
C831        C832   1.423       .  A
C831        C836   1.402       .  A
C832        C833   1.415       .  A
C833        C834   1.395       .  A
C833        H842   1.077       .  S
C834        C835   1.399       .  A
C834        H843   1.083       .  S
C835        C836   1.399       .  A
C836        H844   1.085       .  S
C845        C846   1.401       .  A
C845        C850   1.400       .  A
C846        C847   1.401       .  A
C846        H859   1.083       .  S
C847        C848   1.417       .  A
C847        H860   1.078       .  S
C848        C854   1.432       .  A
C848        C849   1.422       .  A
C849        C851   1.398       .  A
C849        C850   1.401       .  A
C850        H861   1.085       .  S
C851        C852   1.386       .  A
C851        H862   1.084       .  S
C852        C853   1.398       .  A
C852        H863   1.084       .  S
C853        C854   1.422       .  A
C853        C858   1.401       .  A
C854        C855   1.415       .  A
C855        C856   1.400       .  A
C855        H864   1.078       .  S
C856        C857   1.404       .  A
C856        H865   1.083       .  S
C857        C858   1.402       .  A
C858        H866   1.084       .  S
C867        C868   1.401       .  A
C867        C872   1.403       .  A
C868        C869   1.395       .  A
C868        H881   1.083       .  S
C869        C870   1.415       .  A
C869        H882   1.077       .  S
C870        C876   1.429       .  A
C870        C871   1.422       .  A
C871        C873   1.400       .  A
C871        C872   1.404       .  A
C872        H883   1.084       .  S
C873        C874   1.390       .  A
C873        H884   1.084       .  S
C874        C875   1.399       .  A
C874        H885   1.084       .  S
C875        C876   1.423       .  A
C875        C880   1.406       .  A
C876        C877   1.414       .  A
C877        C878   1.395       .  A
C877        H886   1.077       .  S
C878        C879   1.400       .  A
C878        H887   1.083       .  S
C879        C880   1.401       .  A
C880        H888   1.084       .  S
C889        C890   1.401       .  A
C889        C894   1.402       .  A
C890        C891   1.395       .  A
C890        H903   1.083       .  S
C891        C892   1.413       .  A
C891        H904   1.078       .  S
C892        C898   1.429       .  A
C892        C893   1.423       .  A
C893        C895   1.399       .  A
C893        C894   1.406       .  A
C894        H905   1.084       .  S
C895        C896   1.390       .  A
C895        H906   1.084       .  S
C896        C897   1.400       .  A
C896        H907   1.084       .  S
C897        C898   1.419       .  A
C897        C902   1.404       .  A
C898        C899   1.413       .  A
C899        C900   1.397       .  A
C899        H908   1.078       .  S
C900        C901   1.404       .  A
C900        H909   1.082       .  S
C901        C902   1.408       .  A
C902        H910   1.083       .  S
C911        C912   1.404       .  A
C911        C916   1.404       .  A
C912        C913   1.396       .  A
C912        H925   1.083       .  S
C913        C914   1.413       .  A
C913        H926   1.078       .  S
C914        C920   1.430       .  A
C914        C915   1.422       .  A
C915        C917   1.399       .  A
C915        C916   1.405       .  A
C916        H927   1.083       .  S
C917        C918   1.389       .  A
C917        H928   1.084       .  S
C918        C919   1.399       .  A
C918        H929   1.084       .  S
C919        C920   1.421       .  A
C919        C924   1.403       .  A
C920        C921   1.416       .  A
C921        C922   1.398       .  A
C921        H930   1.078       .  S
C922        C923   1.400       .  A
C922        H931   1.083       .  S
C923        C924   1.401       .  A
C924        H932   1.085       .  S
C933        C934   1.405       .  A
C933        C938   1.405       .  A
C934        C935   1.398       .  A
C934        H947   1.082       .  S
C935        C936   1.414       .  A
C935        H948   1.077       .  S
C936        C942   1.431       .  A
C936        C937   1.422       .  A
C937        C939   1.399       .  A
C937        C938   1.405       .  A
C938        H949   1.083       .  S
C939        C940   1.389       .  A
C939        H950   1.084       .  S
C940        C941   1.399       .  A
C940        H951   1.084       .  S
C941        C942   1.422       .  A
C941        C946   1.405       .  A
C942        C943   1.416       .  A
C943        C944   1.398       .  A
C943        H952   1.077       .  S
C944        C945   1.401       .  A
C944        H953   1.083       .  S
C945        C946   1.401       .  A
C946        H954   1.084       .  S
C955        C956   1.404       .  A
C955        C960   1.404       .  A
C956        C957   1.396       .  A
C956        H969   1.083       .  S
C957        C958   1.413       .  A
C957        H970   1.078       .  S
C958        C964   1.430       .  A
C958        C959   1.422       .  A
C959        C961   1.399       .  A
C959        C960   1.406       .  A
C960        H971   1.083       .  S
C961        C962   1.390       .  A
C961        H972   1.084       .  S
C962        C963   1.400       .  A
C962        H973   1.084       .  S
C963        C964   1.422       .  A
C963        C968   1.405       .  A
C964        C965   1.416       .  A
C965        C966   1.398       .  A
C965        H974   1.078       .  S
C966        C967   1.400       .  A
C966        H975   1.083       .  S
C967        C968   1.401       .  A
C968        H976   1.085       .  S
C977        C978   1.399       .  A
C977        C982   1.401       .  A
C978        C979   1.396       .  A
C978        H991   1.083       .  S
C979        C980   1.416       .  A
C979        H992   1.077       .  S
C980        C986   1.428       .  A
C980        C981   1.421       .  A
C981        C983   1.399       .  A
C981        C982   1.403       .  A
C982        H993   1.085       .  S
C983        C984   1.390       .  A
C983        H994   1.084       .  S
C984        C985   1.399       .  A
C984        H995   1.084       .  S
C985        C986   1.423       .  A
C985        C990   1.406       .  A
C986        C987   1.411       .  A
C987        C988   1.393       .  A
C987        H996   1.077       .  S
C988        C989   1.405       .  A
C988        H997   1.083       .  S
C989        C990   1.402       .  A
C990        H998   1.084       .  S
C999       C1000   1.404       .  A
C999       C1004   1.406       .  A
C1000      C1001   1.396       .  A
C1000      H1013   1.082       .  S
C1001      C1002   1.414       .  A
C1001      H1014   1.077       .  S
C1002      C1008   1.428       .  A
C1002      C1003   1.420       .  A
C1003      C1005   1.399       .  A
C1003      C1004   1.401       .  A
C1004      H1015   1.083       .  S
C1005      C1006   1.388       .  A
C1005      H1016   1.084       .  S
C1006      C1007   1.398       .  A
C1006      H1017   1.084       .  S
C1007      C1008   1.423       .  A
C1007      C1012   1.403       .  A
C1008      C1009   1.413       .  A
C1009      C1010   1.394       .  A
C1009      H1018   1.077       .  S
C1010      C1011   1.401       .  A
C1010      H1019   1.083       .  S
C1011      C1012   1.400       .  A
C1012      H1020   1.084       .  S
C1021      C1022   1.402       .  A
C1021      C1026   1.400       .  A
C1022      C1023   1.400       .  A
C1022      H1035   1.083       .  S
C1023      C1024   1.416       .  A
C1023      H1036   1.078       .  S
C1024      C1030   1.431       .  A
C1024      C1025   1.422       .  A
C1025      C1027   1.398       .  A
C1025      C1026   1.401       .  A
C1026      H1037   1.085       .  S
C1027      C1028   1.387       .  A
C1027      H1038   1.084       .  S
C1028      C1029   1.398       .  A
C1028      H1039   1.084       .  S
C1029      C1030   1.421       .  A
C1029      C1034   1.402       .  A
C1030      C1031   1.414       .  A
C1031      C1032   1.400       .  A
C1031      H1040   1.078       .  S
C1032      C1033   1.406       .  A
C1032      H1041   1.082       .  S
C1033      C1034   1.404       .  A
C1034      H1042   1.083       .  S
C1043      C1044   1.403       .  A
C1043      C1048   1.403       .  A
C1044      C1045   1.397       .  A
C1044      H1057   1.083       .  S
C1045      C1046   1.414       .  A
C1045      H1058   1.078       .  S
C1046      C1052   1.429       .  A
C1046      C1047   1.422       .  A
C1047      C1049   1.399       .  A
C1047      C1048   1.403       .  A
C1048      H1059   1.084       .  S
C1049      C1050   1.389       .  A
C1049      H1060   1.084       .  S
C1050      C1051   1.399       .  A
C1050      H1061   1.084       .  S
C1051      C1052   1.422       .  A
C1051      C1056   1.403       .  A
C1052      C1053   1.415       .  A
C1053      C1054   1.397       .  A
C1053      H1062   1.078       .  S
C1054      C1055   1.400       .  A
C1054      H1063   1.083       .  S
C1055      C1056   1.400       .  A
C1056      H1064   1.085       .  S
C1065      C1066   1.404       .  A
C1065      C1070   1.404       .  A
C1066      C1067   1.392       .  A
C1066      H1079   1.082       .  S
C1067      C1068   1.411       .  A
C1067      H1080   1.078       .  S
C1068      C1074   1.426       .  A
C1068      C1069   1.422       .  A
C1069      C1071   1.399       .  A
C1069      C1070   1.405       .  A
C1070      H1081   1.083       .  S
C1071      C1072   1.390       .  A
C1071      H1082   1.084       .  S
C1072      C1073   1.400       .  A
C1072      H1083   1.084       .  S
C1073      C1074   1.421       .  A
C1073      C1078   1.403       .  A
C1074      C1075   1.415       .  A
C1075      C1076   1.395       .  A
C1075      H1084   1.078       .  S
C1076      C1077   1.399       .  A
C1076      H1085   1.083       .  S
C1077      C1078   1.401       .  A
C1078      H1086   1.085       .  S
C1087      C1088   1.404       .  A
C1087      C1092   1.404       .  A
C1088      C1089   1.394       .  A
C1088      H1101   1.083       .  S
C1089      C1090   1.413       .  A
C1089      H1102   1.077       .  S
C1090      C1096   1.428       .  A
C1090      C1091   1.421       .  A
C1091      C1093   1.399       .  A
C1091      C1092   1.404       .  A
C1092      H1103   1.083       .  S
C1093      C1094   1.389       .  A
C1093      H1104   1.084       .  S
C1094      C1095   1.399       .  A
C1094      H1105   1.084       .  S
C1095      C1096   1.422       .  A
C1095      C1100   1.403       .  A
C1096      C1097   1.415       .  A
C1097      C1098   1.395       .  A
C1097      H1106   1.077       .  S
C1098      C1099   1.400       .  A
C1098      H1107   1.083       .  S
C1099      C1100   1.400       .  A
C1100      H1108   1.085       .  S
C1109      C1110   1.402       .  A
C1109      C1114   1.401       .  A
C1110      C1111   1.395       .  A
C1110      H1123   1.083       .  S
C1111      C1112   1.414       .  A
C1111      H1124   1.077       .  S
C1112      C1118   1.428       .  A
C1112      C1113   1.423       .  A
C1113      C1115   1.399       .  A
C1113      C1114   1.403       .  A
C1114      H1125   1.084       .  S
C1115      C1116   1.389       .  A
C1115      H1126   1.084       .  S
C1116      C1117   1.399       .  A
C1116      H1127   1.084       .  S
C1117      C1118   1.422       .  A
C1117      C1122   1.402       .  A
C1118      C1119   1.416       .  A
C1119      C1120   1.396       .  A
C1119      H1128   1.077       .  S
C1120      C1121   1.399       .  A
C1120      H1129   1.084       .  S
C1121      C1122   1.399       .  A
C1122      H1130   1.085       .  S
C1131      C1132   1.399       .  A
C1131      C1136   1.401       .  A
C1132      C1133   1.398       .  A
C1132      H1145   1.083       .  S
C1133      C1134   1.416       .  A
C1133      H1146   1.078       .  S
C1134      C1140   1.429       .  A
C1134      C1135   1.421       .  A
C1135      C1137   1.399       .  A
C1135      C1136   1.402       .  A
C1136      H1147   1.085       .  S
C1137      C1138   1.389       .  A
C1137      H1148   1.084       .  S
C1138      C1139   1.399       .  A
C1138      H1149   1.084       .  S
C1139      C1140   1.421       .  A
C1139      C1144   1.404       .  A
C1140      C1141   1.413       .  A
C1141      C1142   1.396       .  A
C1141      H1150   1.078       .  S
C1142      C1143   1.404       .  A
C1142      H1151   1.083       .  S
C1143      C1144   1.404       .  A
C1144      H1152   1.084       .  S
C1153      C1154   1.400       .  A
C1153      C1158   1.402       .  A
C1154      C1155   1.393       .  A
C1154      H1167   1.083       .  S
C1155      C1156   1.413       .  A
C1155      H1168   1.077       .  S
C1156      C1162   1.428       .  A
C1156      C1157   1.422       .  A
C1157      C1159   1.400       .  A
C1157      C1158   1.407       .  A
C1158      H1169   1.084       .  S
C1159      C1160   1.391       .  A
C1159      H1170   1.084       .  S
C1160      C1161   1.400       .  A
C1160      H1171   1.084       .  S
C1161      C1162   1.421       .  A
C1161      C1166   1.405       .  A
C1162      C1163   1.413       .  A
C1163      C1164   1.394       .  A
C1163      H1172   1.077       .  S
C1164      C1165   1.402       .  A
C1164      H1173   1.083       .  S
C1165      C1166   1.404       .  A
C1166      H1174   1.084       .  S
C1175      C1176   1.404       .  A
C1175      C1180   1.404       .  A
C1176      C1177   1.396       .  A
C1176      H1189   1.083       .  S
C1177      C1178   1.414       .  A
C1177      H1190   1.078       .  S
C1178      C1184   1.429       .  A
C1178      C1179   1.421       .  A
C1179      C1181   1.399       .  A
C1179      C1180   1.404       .  A
C1180      H1191   1.084       .  S
C1181      C1182   1.389       .  A
C1181      H1192   1.084       .  S
C1182      C1183   1.399       .  A
C1182      H1193   1.084       .  S
C1183      C1184   1.422       .  A
C1183      C1188   1.404       .  A
C1184      C1185   1.415       .  A
C1185      C1186   1.397       .  A
C1185      H1194   1.078       .  S
C1186      C1187   1.402       .  A
C1186      H1195   1.083       .  S
C1187      C1188   1.401       .  A
C1188      H1196   1.084       .  S
C1197      C1198   1.399       .  A
C1197      C1202   1.401       .  A
C1198      C1199   1.391       .  A
C1198      H1211   1.083       .  S
C1199      C1200   1.413       .  A
C1199      H1212   1.077       .  S
C1200      C1206   1.424       .  A
C1200      C1201   1.422       .  A
C1201      C1203   1.400       .  A
C1201      C1202   1.403       .  A
C1202      H1213   1.084       .  S
C1203      C1204   1.390       .  A
C1203      H1214   1.084       .  S
C1204      C1205   1.400       .  A
C1204      H1215   1.084       .  S
C1205      C1206   1.422       .  A
C1205      C1210   1.403       .  A
C1206      C1207   1.414       .  A
C1207      C1208   1.392       .  A
C1207      H1216   1.077       .  S
C1208      C1209   1.397       .  A
C1208      H1217   1.084       .  S
C1209      C1210   1.400       .  A
C1210      H1218   1.085       .  S
C1219      C1220   1.398       .  A
C1219      C1224   1.398       .  A
C1220      C1221   1.391       .  A
C1220      H1233   1.084       .  S
C1221      C1222   1.413       .  A
C1221      H1234   1.077       .  S
C1222      C1228   1.424       .  A
C1222      C1223   1.422       .  A
C1223      C1225   1.399       .  A
C1223      C1224   1.402       .  A
C1224      H1235   1.085       .  S
C1225      C1226   1.390       .  A
C1225      H1236   1.084       .  S
C1226      C1227   1.400       .  A
C1226      H1237   1.084       .  S
C1227      C1228   1.421       .  A
C1227      C1232   1.401       .  A
C1228      C1229   1.413       .  A
C1229      C1230   1.392       .  A
C1229      H1238   1.077       .  S
C1230      C1231   1.401       .  A
C1230      H1239   1.083       .  S
C1231      C1232   1.402       .  A
C1232      H1240   1.084       .  S
C1241      C1242   1.402       .  A
C1241      C1246   1.406       .  A
C1242      C1243   1.394       .  A
C1242      H1255   1.082       .  S
C1243      C1244   1.414       .  A
C1243      H1256   1.077       .  S
C1244      C1250   1.427       .  A
C1244      C1245   1.420       .  A
C1245      C1247   1.400       .  A
C1245      C1246   1.404       .  A
C1246      H1257   1.083       .  S
C1247      C1248   1.391       .  A
C1247      H1258   1.084       .  S
C1248      C1249   1.399       .  A
C1248      H1259   1.084       .  S
C1249      C1250   1.423       .  A
C1249      C1254   1.406       .  A
C1250      C1251   1.413       .  A
C1251      C1252   1.392       .  A
C1251      H1260   1.077       .  S
C1252      C1253   1.400       .  A
C1252      H1261   1.084       .  S
C1253      C1254   1.401       .  A
C1254      H1262   1.084       .  S
C1263      C1264   1.401       .  A
C1263      C1268   1.404       .  A
C1264      C1265   1.395       .  A
C1264      H1277   1.083       .  S
C1265      C1266   1.415       .  A
C1265      H1278   1.077       .  S
C1266      C1272   1.428       .  A
C1266      C1267   1.421       .  A
C1267      C1269   1.400       .  A
C1267      C1268   1.403       .  A
C1268      H1279   1.084       .  S
C1269      C1270   1.390       .  A
C1269      H1280   1.084       .  S
C1270      C1271   1.399       .  A
C1270      H1281   1.084       .  S
C1271      C1272   1.423       .  A
C1271      C1276   1.405       .  A
C1272      C1273   1.414       .  A
C1273      C1274   1.394       .  A
C1273      H1282   1.077       .  S
C1274      C1275   1.399       .  A
C1274      H1283   1.083       .  S
C1275      C1276   1.400       .  A
C1276      H1284   1.085       .  S
C1285      C1286   1.402       .  A
C1285      C1290   1.405       .  A
C1286      C1287   1.392       .  A
C1286      H1299   1.082       .  S
C1287      C1288   1.412       .  A
C1287      H1300   1.077       .  S
C1288      C1294   1.428       .  A
C1288      C1289   1.421       .  A
C1289      C1291   1.401       .  A
C1289      C1290   1.407       .  A
C1290      H1301   1.084       .  S
C1291      C1292   1.392       .  A
C1291      H1302   1.084       .  S
C1292      C1293   1.400       .  A
C1292      H1303   1.084       .  S
C1293      C1294   1.422       .  A
C1293      C1298   1.408       .  A
C1294      C1295   1.413       .  A
C1295      C1296   1.392       .  A
C1295      H1304   1.077       .  S
C1296      C1297   1.399       .  A
C1296      H1305   1.083       .  S
C1297      C1298   1.402       .  A
C1298      H1306   1.084       .  S
C1307      C1308   1.403       .  A
C1307      C1312   1.402       .  A
C1308      C1309   1.396       .  A
C1308      H1321   1.083       .  S
C1309      C1310   1.414       .  A
C1309      H1322   1.078       .  S
C1310      C1316   1.429       .  A
C1310      C1311   1.422       .  A
C1311      C1313   1.399       .  A
C1311      C1312   1.403       .  A
C1312      H1323   1.084       .  S
C1313      C1314   1.388       .  A
C1313      H1324   1.084       .  S
C1314      C1315   1.399       .  A
C1314      H1325   1.084       .  S
C1315      C1316   1.422       .  A
C1315      C1320   1.401       .  A
C1316      C1317   1.416       .  A
C1317      C1318   1.398       .  A
C1317      H1326   1.078       .  S
C1318      C1319   1.399       .  A
C1318      H1327   1.083       .  S
C1319      C1320   1.399       .  A
C1320      H1328   1.085       .  S
C1329      C1330   1.404       .  A
C1329      C1334   1.407       .  A
C1330      C1331   1.389       .  A
C1330      H1343   1.082       .  S
C1331      C1332   1.410       .  A
C1331      H1344   1.077       .  S
C1332      C1338   1.425       .  A
C1332      C1333   1.421       .  A
C1333      C1335   1.401       .  A
C1333      C1334   1.408       .  A
C1334      H1345   1.083       .  S
C1335      C1336   1.393       .  A
C1335      H1346   1.084       .  S
C1336      C1337   1.401       .  A
C1336      H1347   1.084       .  S
C1337      C1338   1.421       .  A
C1337      C1342   1.407       .  A
C1338      C1339   1.413       .  A
C1339      C1340   1.390       .  A
C1339      H1348   1.077       .  S
C1340      C1341   1.399       .  A
C1340      H1349   1.083       .  S
C1341      C1342   1.403       .  A
C1342      H1350   1.084       .  S
C1351      C1352   1.400       .  A
C1351      C1356   1.402       .  A
C1352      C1353   1.393       .  A
C1352      H1365   1.083       .  S
C1353      C1354   1.413       .  A
C1353      H1366   1.077       .  S
C1354      C1360   1.426       .  A
C1354      C1355   1.422       .  A
C1355      C1357   1.400       .  A
C1355      C1356   1.405       .  A
C1356      H1367   1.084       .  S
C1357      C1358   1.391       .  A
C1357      H1368   1.084       .  S
C1358      C1359   1.400       .  A
C1358      H1369   1.084       .  S
C1359      C1360   1.421       .  A
C1359      C1364   1.404       .  A
C1360      C1361   1.413       .  A
C1361      C1362   1.393       .  A
C1361      H1370   1.077       .  S
C1362      C1363   1.402       .  A
C1362      H1371   1.082       .  S
C1363      C1364   1.404       .  A
C1364      H1372   1.084       .  S
C1373      C1374   1.401       .  A
C1373      C1378   1.403       .  A
C1374      C1375   1.392       .  A
C1374      H1387   1.083       .  S
C1375      C1376   1.413       .  A
C1375      H1388   1.077       .  S
C1376      C1382   1.427       .  A
C1376      C1377   1.422       .  A
C1377      C1379   1.400       .  A
C1377      C1378   1.407       .  A
C1378      H1389   1.084       .  S
C1379      C1380   1.392       .  A
C1379      H1390   1.084       .  S
C1380      C1381   1.400       .  A
C1380      H1391   1.084       .  S
C1381      C1382   1.422       .  A
C1381      C1386   1.406       .  A
C1382      C1383   1.414       .  A
C1383      C1384   1.393       .  A
C1383      H1392   1.077       .  S
C1384      C1385   1.399       .  A
C1384      H1393   1.084       .  S
C1385      C1386   1.401       .  A
C1386      H1394   1.084       .  S
C1395      C1396   1.404       .  A
C1395      C1400   1.403       .  A
C1396      C1397   1.395       .  A
C1396      H1409   1.082       .  S
C1397      C1398   1.412       .  A
C1397      H1410   1.078       .  S
C1398      C1404   1.427       .  A
C1398      C1399   1.422       .  A
C1399      C1401   1.399       .  A
C1399      C1400   1.403       .  A
C1400      H1411   1.083       .  S
C1401      C1402   1.388       .  A
C1401      H1412   1.084       .  S
C1402      C1403   1.399       .  A
C1402      H1413   1.084       .  S
C1403      C1404   1.421       .  A
C1403      C1408   1.400       .  A
C1404      C1405   1.416       .  A
C1405      C1406   1.398       .  A
C1405      H1414   1.078       .  S
C1406      C1407   1.399       .  A
C1406      H1415   1.083       .  S
C1407      C1408   1.401       .  A
C1408      H1416   1.085       .  S
C1417      C1418   1.399       .  A
C1417      C1422   1.400       .  A
C1418      C1419   1.394       .  A
C1418      H1431   1.084       .  S
C1419      C1420   1.414       .  A
C1419      H1432   1.077       .  S
C1420      C1426   1.429       .  A
C1420      C1421   1.424       .  A
C1421      C1423   1.399       .  A
C1421      C1422   1.407       .  A
C1422      H1433   1.085       .  S
C1423      C1424   1.391       .  A
C1423      H1434   1.084       .  S
C1424      C1425   1.400       .  A
C1424      H1435   1.084       .  S
C1425      C1426   1.421       .  A
C1425      C1430   1.405       .  A
C1426      C1427   1.415       .  A
C1427      C1428   1.396       .  A
C1427      H1436   1.077       .  S
C1428      C1429   1.402       .  A
C1428      H1437   1.083       .  S
C1429      C1430   1.404       .  A
C1430      H1438   1.084       .  S
C1439      C1440   1.399       .  A
C1439      C1444   1.399       .  A
C1440      C1441   1.397       .  A
C1440      H1453   1.083       .  S
C1441      C1442   1.415       .  A
C1441      H1454   1.077       .  S
C1442      C1448   1.429       .  A
C1442      C1443   1.423       .  A
C1443      C1445   1.398       .  A
C1443      C1444   1.402       .  A
C1444      H1455   1.085       .  S
C1445      C1446   1.388       .  A
C1445      H1456   1.084       .  S
C1446      C1447   1.399       .  A
C1446      H1457   1.084       .  S
C1447      C1448   1.421       .  A
C1447      C1452   1.402       .  A
C1448      C1449   1.414       .  A
C1449      C1450   1.397       .  A
C1449      H1458   1.078       .  S
C1450      C1451   1.403       .  A
C1450      H1459   1.082       .  S
C1451      C1452   1.404       .  A
C1452      H1460   1.084       .  S
C1461      C1462   1.401       .  A
C1461      C1466   1.402       .  A
C1462      C1463   1.396       .  A
C1462      H1475   1.083       .  S
C1463      C1464   1.415       .  A
C1463      H1476   1.077       .  S
C1464      C1470   1.428       .  A
C1464      C1465   1.421       .  A
C1465      C1467   1.399       .  A
C1465      C1466   1.402       .  A
C1466      H1477   1.084       .  S
C1467      C1468   1.389       .  A
C1467      H1478   1.084       .  S
C1468      C1469   1.399       .  A
C1468      H1479   1.084       .  S
C1469      C1470   1.423       .  A
C1469      C1474   1.404       .  A
C1470      C1471   1.414       .  A
C1471      C1472   1.395       .  A
C1471      H1480   1.077       .  S
C1472      C1473   1.399       .  A
C1472      H1481   1.084       .  S
C1473      C1474   1.399       .  A
C1474      H1482   1.085       .  S
C1483      C1484   1.403       .  A
C1483      C1488   1.406       .  A
C1484      C1485   1.396       .  A
C1484      H1497   1.082       .  S
C1485      C1486   1.413       .  A
C1485      H1498   1.077       .  S
C1486      C1492   1.428       .  A
C1486      C1487   1.420       .  A
C1487      C1489   1.400       .  A
C1487      C1488   1.403       .  A
C1488      H1499   1.083       .  S
C1489      C1490   1.389       .  A
C1489      H1500   1.084       .  S
C1490      C1491   1.399       .  A
C1490      H1501   1.084       .  S
C1491      C1492   1.422       .  A
C1491      C1496   1.403       .  A
C1492      C1493   1.414       .  A
C1493      C1494   1.396       .  A
C1493      H1502   1.077       .  S
C1494      C1495   1.400       .  A
C1494      H1503   1.083       .  S
C1495      C1496   1.401       .  A
C1496      H1504   1.084       .  S
C1505      C1506   1.404       .  A
C1505      C1510   1.405       .  A
C1506      C1507   1.396       .  A
C1506      H1519   1.083       .  S
C1507      C1508   1.413       .  A
C1507      H1520   1.078       .  S
C1508      C1514   1.429       .  A
C1508      C1509   1.421       .  A
C1509      C1511   1.399       .  A
C1509      C1510   1.404       .  A
C1510      H1521   1.083       .  S
C1511      C1512   1.389       .  A
C1511      H1522   1.084       .  S
C1512      C1513   1.399       .  A
C1512      H1523   1.084       .  S
C1513      C1514   1.422       .  A
C1513      C1518   1.403       .  A
C1514      C1515   1.415       .  A
C1515      C1516   1.397       .  A
C1515      H1524   1.078       .  S
C1516      C1517   1.400       .  A
C1516      H1525   1.083       .  S
C1517      C1518   1.401       .  A
C1518      H1526   1.085       .  S
C1527      C1528   1.403       .  A
C1527      C1532   1.405       .  A
C1528      C1529   1.395       .  A
C1528      H1541   1.082       .  S
C1529      C1530   1.413       .  A
C1529      H1542   1.077       .  S
C1530      C1536   1.429       .  A
C1530      C1531   1.421       .  A
C1531      C1533   1.400       .  A
C1531      C1532   1.406       .  A
C1532      H1543   1.083       .  S
C1533      C1534   1.391       .  A
C1533      H1544   1.084       .  S
C1534      C1535   1.400       .  A
C1534      H1545   1.084       .  S
C1535      C1536   1.422       .  A
C1535      C1540   1.406       .  A
C1536      C1537   1.414       .  A
C1537      C1538   1.395       .  A
C1537      H1546   1.077       .  S
C1538      C1539   1.400       .  A
C1538      H1547   1.083       .  S
C1539      C1540   1.401       .  A
C1540      H1548   1.084       .  S
C1549      C1550   1.400       .  A
C1549      C1554   1.403       .  A
C1550      C1551   1.399       .  A
C1550      H1563   1.083       .  S
C1551      C1552   1.416       .  A
C1551      H1564   1.078       .  S
C1552      C1558   1.432       .  A
C1552      C1553   1.422       .  A
C1553      C1555   1.400       .  A
C1553      C1554   1.407       .  A
C1554      H1565   1.085       .  S
C1555      C1556   1.391       .  A
C1555      H1566   1.084       .  S
C1556      C1557   1.400       .  A
C1556      H1567   1.084       .  S
C1557      C1558   1.422       .  A
C1557      C1562   1.409       .  A
C1558      C1559   1.413       .  A
C1559      C1560   1.397       .  A
C1559      H1568   1.078       .  S
C1560      C1561   1.405       .  A
C1560      H1569   1.083       .  S
C1561      C1562   1.407       .  A
C1562      H1570   1.083       .  S
C1571      C1572   1.400       .  A
C1571      C1576   1.403       .  A
C1572      C1573   1.393       .  A
C1572      H1585   1.083       .  S
C1573      C1574   1.413       .  A
C1573      H1586   1.077       .  S
C1574      C1580   1.428       .  A
C1574      C1575   1.422       .  A
C1575      C1577   1.400       .  A
C1575      C1576   1.408       .  A
C1576      H1587   1.084       .  S
C1577      C1578   1.392       .  A
C1577      H1588   1.084       .  S
C1578      C1579   1.401       .  A
C1578      H1589   1.084       .  S
C1579      C1580   1.421       .  A
C1579      C1584   1.407       .  A
C1580      C1581   1.412       .  A
C1581      C1582   1.393       .  A
C1581      H1590   1.077       .  S
C1582      C1583   1.403       .  A
C1582      H1591   1.083       .  S
C1583      C1584   1.406       .  A
C1584      H1592   1.083       .  S
C1593      C1594   1.401       .  A
C1593      C1598   1.401       .  A
C1594      C1595   1.396       .  A
C1594      H1607   1.083       .  S
C1595      C1596   1.414       .  A
C1595      H1608   1.077       .  S
C1596      C1602   1.430       .  A
C1596      C1597   1.423       .  A
C1597      C1599   1.399       .  A
C1597      C1598   1.405       .  A
C1598      H1609   1.085       .  S
C1599      C1600   1.389       .  A
C1599      H1610   1.084       .  S
C1600      C1601   1.400       .  A
C1600      H1611   1.084       .  S
C1601      C1602   1.420       .  A
C1601      C1606   1.403       .  A
C1602      C1603   1.415       .  A
C1603      C1604   1.398       .  A
C1603      H1612   1.078       .  S
C1604      C1605   1.403       .  A
C1604      H1613   1.082       .  S
C1605      C1606   1.406       .  A
C1606      H1614   1.083       .  S
C1615      C1616   1.403       .  A
C1615      C1620   1.403       .  A
C1616      C1617   1.395       .  A
C1616      H1629   1.083       .  S
C1617      C1618   1.413       .  A
C1617      H1630   1.077       .  S
C1618      C1624   1.429       .  A
C1618      C1619   1.422       .  A
C1619      C1621   1.399       .  A
C1619      C1620   1.404       .  A
C1620      H1631   1.084       .  S
C1621      C1622   1.390       .  A
C1621      H1632   1.084       .  S
C1622      C1623   1.399       .  A
C1622      H1633   1.084       .  S
C1623      C1624   1.422       .  A
C1623      C1628   1.404       .  A
C1624      C1625   1.415       .  A
C1625      C1626   1.397       .  A
C1625      H1634   1.077       .  S
C1626      C1627   1.400       .  A
C1626      H1635   1.083       .  S
C1627      C1628   1.401       .  A
C1628      H1636   1.085       .  S
C1637      C1638   1.403       .  A
C1637      C1642   1.403       .  A
C1638      C1639   1.394       .  A
C1638      H1651   1.083       .  S
C1639      C1640   1.413       .  A
C1639      H1652   1.077       .  S
C1640      C1646   1.428       .  A
C1640      C1641   1.422       .  A
C1641      C1643   1.399       .  A
C1641      C1642   1.404       .  A
C1642      H1653   1.084       .  S
C1643      C1644   1.389       .  A
C1643      H1654   1.084       .  S
C1644      C1645   1.399       .  A
C1644      H1655   1.084       .  S
C1645      C1646   1.422       .  A
C1645      C1650   1.403       .  A
C1646      C1647   1.415       .  A
C1647      C1648   1.395       .  A
C1647      H1656   1.077       .  S
C1648      C1649   1.399       .  A
C1648      H1657   1.083       .  S
C1649      C1650   1.400       .  A
C1650      H1658   1.085       .  S
C1659      C1660   1.403       .  A
C1659      C1664   1.405       .  A
C1660      C1661   1.391       .  A
C1660      H1673   1.082       .  S
C1661      C1662   1.412       .  A
C1661      H1674   1.077       .  S
C1662      C1668   1.426       .  A
C1662      C1663   1.421       .  A
C1663      C1665   1.400       .  A
C1663      C1664   1.406       .  A
C1664      H1675   1.084       .  S
C1665      C1666   1.391       .  A
C1665      H1676   1.084       .  S
C1666      C1667   1.400       .  A
C1666      H1677   1.084       .  S
C1667      C1668   1.422       .  A
C1667      C1672   1.405       .  A
C1668      C1669   1.413       .  A
C1669      C1670   1.392       .  A
C1669      H1678   1.077       .  S
C1670      C1671   1.400       .  A
C1670      H1679   1.083       .  S
C1671      C1672   1.402       .  A
C1672      H1680   1.084       .  S
C1681      C1682   1.398       .  A
C1681      C1686   1.401       .  A
C1682      C1683   1.393       .  A
C1682      H1695   1.083       .  S
C1683      C1684   1.414       .  A
C1683      H1696   1.077       .  S
C1684      C1690   1.426       .  A
C1684      C1685   1.422       .  A
C1685      C1687   1.400       .  A
C1685      C1686   1.404       .  A
C1686      H1697   1.085       .  S
C1687      C1688   1.390       .  A
C1687      H1698   1.084       .  S
C1688      C1689   1.400       .  A
C1688      H1699   1.084       .  S
C1689      C1690   1.422       .  A
C1689      C1694   1.404       .  A
C1690      C1691   1.413       .  A
C1691      C1692   1.392       .  A
C1691      H1700   1.077       .  S
C1692      C1693   1.401       .  A
C1692      H1701   1.083       .  S
C1693      C1694   1.403       .  A
C1694      H1702   1.084       .  S
C1703      C1704   1.398       .  A
C1703      C1708   1.400       .  A
C1704      C1705   1.394       .  A
C1704      H1717   1.084       .  S
C1705      C1706   1.415       .  A
C1705      H1718   1.077       .  S
C1706      C1712   1.426       .  A
C1706      C1707   1.422       .  A
C1707      C1709   1.399       .  A
C1707      C1708   1.402       .  A
C1708      H1719   1.085       .  S
C1709      C1710   1.389       .  A
C1709      H1720   1.084       .  S
C1710      C1711   1.399       .  A
C1710      H1721   1.084       .  S
C1711      C1712   1.423       .  A
C1711      C1716   1.404       .  A
C1712      C1713   1.413       .  A
C1713      C1714   1.392       .  A
C1713      H1722   1.077       .  S
C1714      C1715   1.401       .  A
C1714      H1723   1.083       .  S
C1715      C1716   1.400       .  A
C1716      H1724   1.084       .  S
C1725      C1726   1.403       .  A
C1725      C1730   1.403       .  A
C1726      C1727   1.398       .  A
C1726      H1739   1.083       .  S
C1727      C1728   1.415       .  A
C1727      H1740   1.078       .  S
C1728      C1734   1.429       .  A
C1728      C1729   1.421       .  A
C1729      C1731   1.399       .  A
C1729      C1730   1.402       .  A
C1730      H1741   1.084       .  S
C1731      C1732   1.388       .  A
C1731      H1742   1.084       .  S
C1732      C1733   1.398       .  A
C1732      H1743   1.084       .  S
C1733      C1734   1.423       .  A
C1733      C1738   1.403       .  A
C1734      C1735   1.414       .  A
C1735      C1736   1.396       .  A
C1735      H1744   1.077       .  S
C1736      C1737   1.401       .  A
C1736      H1745   1.083       .  S
C1737      C1738   1.398       .  A
C1738      H1746   1.085       .  S
C1747      C1748   1.406       .  A
C1747      C1752   1.407       .  A
C1748      C1749   1.395       .  A
C1748      H1761   1.082       .  S
C1749      C1750   1.412       .  A
C1749      H1762   1.078       .  S
C1750      C1756   1.429       .  A
C1750      C1751   1.421       .  A
C1751      C1753   1.400       .  A
C1751      C1752   1.406       .  A
C1752      H1763   1.083       .  S
C1753      C1754   1.390       .  A
C1753      H1764   1.084       .  S
C1754      C1755   1.400       .  A
C1754      H1765   1.084       .  S
C1755      C1756   1.422       .  A
C1755      C1760   1.405       .  A
C1756      C1757   1.415       .  A
C1757      C1758   1.397       .  A
C1757      H1766   1.077       .  S
C1758      C1759   1.400       .  A
C1758      H1767   1.083       .  S
C1759      C1760   1.403       .  A
C1760      H1768   1.084       .  S
C1769      C1770   1.403       .  A
C1769      C1774   1.404       .  A
C1770      C1771   1.395       .  A
C1770      H1783   1.083       .  S
C1771      C1772   1.414       .  A
C1771      H1784   1.077       .  S
C1772      C1778   1.429       .  A
C1772      C1773   1.421       .  A
C1773      C1775   1.400       .  A
C1773      C1774   1.406       .  A
C1774      H1785   1.084       .  S
C1775      C1776   1.391       .  A
C1775      H1786   1.084       .  S
C1776      C1777   1.399       .  A
C1776      H1787   1.084       .  S
C1777      C1778   1.423       .  A
C1777      C1782   1.407       .  A
C1778      C1779   1.414       .  A
C1779      C1780   1.395       .  A
C1779      H1788   1.077       .  S
C1780      C1781   1.400       .  A
C1780      H1789   1.083       .  S
C1781      C1782   1.401       .  A
C1782      H1790   1.084       .  S
C1791      C1792   1.404       .  A
C1791      C1796   1.404       .  A
C1792      C1793   1.398       .  A
C1792      H1805   1.082       .  S
C1793      C1794   1.414       .  A
C1793      H1806   1.078       .  S
C1794      C1800   1.431       .  A
C1794      C1795   1.421       .  A
C1795      C1797   1.399       .  A
C1795      C1796   1.402       .  A
C1796      H1807   1.083       .  S
C1797      C1798   1.387       .  A
C1797      H1808   1.084       .  S
C1798      C1799   1.398       .  A
C1798      H1809   1.084       .  S
C1799      C1800   1.422       .  A
C1799      C1804   1.402       .  A
C1800      C1801   1.416       .  A
C1801      C1802   1.399       .  A
C1801      H1810   1.078       .  S
C1802      C1803   1.401       .  A
C1802      H1811   1.083       .  S
C1803      C1804   1.400       .  A
C1804      H1812   1.085       .  S
C1813      C1814   1.399       .  A
C1813      C1818   1.403       .  A
C1814      C1815   1.396       .  A
C1814      H1827   1.083       .  S
C1815      C1816   1.416       .  A
C1815      H1828   1.077       .  S
C1816      C1822   1.431       .  A
C1816      C1817   1.421       .  A
C1817      C1819   1.401       .  A
C1817      C1818   1.408       .  A
C1818      H1829   1.084       .  S
C1819      C1820   1.393       .  A
C1819      H1830   1.084       .  S
C1820      C1821   1.401       .  A
C1820      H1831   1.084       .  S
C1821      C1822   1.423       .  A
C1821      C1826   1.411       .  A
C1822      C1823   1.412       .  A
C1823      C1824   1.393       .  A
C1823      H1832   1.077       .  S
C1824      C1825   1.403       .  A
C1824      H1833   1.083       .  S
C1825      C1826   1.405       .  A
C1826      H1834   1.084       .  S
C1835      C1836   1.398       .  A
C1835      C1840   1.399       .  A
C1836      C1837   1.392       .  A
C1836      H1849   1.084       .  S
C1837      C1838   1.414       .  A
C1837      H1850   1.077       .  S
C1838      C1844   1.425       .  A
C1838      C1839   1.423       .  A
C1839      C1841   1.399       .  A
C1839      C1840   1.404       .  A
C1840      H1851   1.085       .  S
C1841      C1842   1.389       .  A
C1841      H1852   1.084       .  S
C1842      C1843   1.399       .  A
C1842      H1853   1.084       .  S
C1843      C1844   1.421       .  A
C1843      C1848   1.402       .  A
C1844      C1845   1.413       .  A
C1845      C1846   1.392       .  A
C1845      H1854   1.077       .  S
C1846      C1847   1.400       .  A
C1846      H1855   1.083       .  S
C1847      C1848   1.402       .  A
C1848      H1856   1.084       .  S
C1857      C1858   1.403       .  A
C1857      C1862   1.403       .  A
C1858      C1859   1.394       .  A
C1858      H1871   1.083       .  S
C1859      C1860   1.413       .  A
C1859      H1872   1.077       .  S
C1860      C1866   1.429       .  A
C1860      C1861   1.423       .  A
C1861      C1863   1.400       .  A
C1861      C1862   1.407       .  A
C1862      H1873   1.084       .  S
C1863      C1864   1.390       .  A
C1863      H1874   1.084       .  S
C1864      C1865   1.400       .  A
C1864      H1875   1.084       .  S
C1865      C1866   1.422       .  A
C1865      C1870   1.404       .  A
C1866      C1867   1.416       .  A
C1867      C1868   1.396       .  A
C1867      H1876   1.077       .  S
C1868      C1869   1.399       .  A
C1868      H1877   1.083       .  S
C1869      C1870   1.401       .  A
C1870      H1878   1.085       .  S
C1879      C1880   1.405       .  A
C1879      C1884   1.403       .  A
C1880      C1881   1.401       .  A
C1880      H1893   1.083       .  S
C1881      C1882   1.415       .  A
C1881      H1894   1.078       .  S
C1882      C1888   1.433       .  A
C1882      C1883   1.422       .  A
C1883      C1885   1.398       .  A
C1883      C1884   1.403       .  A
C1884      H1895   1.084       .  S
C1885      C1886   1.387       .  A
C1885      H1896   1.084       .  S
C1886      C1887   1.398       .  A
C1886      H1897   1.084       .  S
C1887      C1888   1.422       .  A
C1887      C1892   1.403       .  A
C1888      C1889   1.417       .  A
C1889      C1890   1.402       .  A
C1889      H1898   1.078       .  S
C1890      C1891   1.402       .  A
C1890      H1899   1.083       .  S
C1891      C1892   1.400       .  A
C1892      H1900   1.085       .  S
C1901      C1902   1.402       .  A
C1901      C1906   1.405       .  A
C1902      C1903   1.396       .  A
C1902      H1915   1.083       .  S
C1903      C1904   1.414       .  A
C1903      H1916   1.077       .  S
C1904      C1910   1.429       .  A
C1904      C1905   1.421       .  A
C1905      C1907   1.400       .  A
C1905      C1906   1.404       .  A
C1906      H1917   1.084       .  S
C1907      C1908   1.390       .  A
C1907      H1918   1.084       .  S
C1908      C1909   1.399       .  A
C1908      H1919   1.084       .  S
C1909      C1910   1.423       .  A
C1909      C1914   1.405       .  A
C1910      C1911   1.414       .  A
C1911      C1912   1.394       .  A
C1911      H1920   1.077       .  S
C1912      C1913   1.400       .  A
C1912      H1921   1.084       .  S
C1913      C1914   1.400       .  A
C1914      H1922   1.085       .  S
C1923      C1924   1.404       .  A
C1923      C1928   1.403       .  A
C1924      C1925   1.394       .  A
C1924      H1937   1.082       .  S
C1925      C1926   1.412       .  A
C1925      H1938   1.077       .  S
C1926      C1932   1.428       .  A
C1926      C1927   1.422       .  A
C1927      C1929   1.399       .  A
C1927      C1928   1.405       .  A
C1928      H1939   1.084       .  S
C1929      C1930   1.390       .  A
C1929      H1940   1.084       .  S
C1930      C1931   1.399       .  A
C1930      H1941   1.084       .  S
C1931      C1932   1.422       .  A
C1931      C1936   1.404       .  A
C1932      C1933   1.415       .  A
C1933      C1934   1.396       .  A
C1933      H1942   1.077       .  S
C1934      C1935   1.400       .  A
C1934      H1943   1.083       .  S
C1935      C1936   1.401       .  A
C1936      H1944   1.085       .  S
C1945      C1946   1.399       .  A
C1945      C1950   1.401       .  A
C1946      C1947   1.397       .  A
C1946      H1959   1.083       .  S
C1947      C1948   1.416       .  A
C1947      H1960   1.077       .  S
C1948      C1954   1.430       .  A
C1948      C1949   1.422       .  A
C1949      C1951   1.399       .  A
C1949      C1950   1.405       .  A
C1950      H1961   1.085       .  S
C1951      C1952   1.390       .  A
C1951      H1962   1.084       .  S
C1952      C1953   1.399       .  A
C1952      H1963   1.084       .  S
C1953      C1954   1.422       .  A
C1953      C1958   1.405       .  A
C1954      C1955   1.413       .  A
C1955      C1956   1.395       .  A
C1955      H1964   1.077       .  S
C1956      C1957   1.403       .  A
C1956      H1965   1.083       .  S
C1957      C1958   1.403       .  A
C1958      H1966   1.084       .  S
C1967      C1968   1.402       .  A
C1967      C1972   1.405       .  A
C1968      C1969   1.390       .  A
C1968      H1981   1.083       .  S
C1969      C1970   1.411       .  A
C1969      H1982   1.077       .  S
C1970      C1976   1.424       .  A
C1970      C1971   1.421       .  A
C1971      C1973   1.401       .  A
C1971      C1972   1.406       .  A
C1972      H1983   1.084       .  S
C1973      C1974   1.392       .  A
C1973      H1984   1.084       .  S
C1974      C1975   1.400       .  A
C1974      H1985   1.084       .  S
C1975      C1976   1.421       .  A
C1975      C1980   1.405       .  A
C1976      C1977   1.413       .  A
C1977      C1978   1.391       .  A
C1977      H1986   1.077       .  S
C1978      C1979   1.398       .  A
C1978      H1987   1.084       .  S
C1979      C1980   1.402       .  A
C1980      H1988   1.084       .  S
C1989      C1990   1.401       .  A
C1989      C1994   1.403       .  A
C1990      C1991   1.394       .  A
C1990      H2003   1.083       .  S
C1991      C1992   1.413       .  A
C1991      H2004   1.077       .  S
C1992      C1998   1.428       .  A
C1992      C1993   1.422       .  A
C1993      C1995   1.400       .  A
C1993      C1994   1.404       .  A
C1994      H2005   1.084       .  S
C1995      C1996   1.390       .  A
C1995      H2006   1.084       .  S
C1996      C1997   1.400       .  A
C1996      H2007   1.084       .  S
C1997      C1998   1.422       .  A
C1997      C2002   1.404       .  A
C1998      C1999   1.415       .  A
C1999      C2000   1.395       .  A
C1999      H2008   1.077       .  S
C2000      C2001   1.398       .  A
C2000      H2009   1.083       .  S
C2001      C2002   1.401       .  A
C2002      H2010   1.085       .  S
C2011      C2012   1.402       .  A
C2011      C2016   1.403       .  A
C2012      C2013   1.396       .  A
C2012      H2025   1.083       .  S
C2013      C2014   1.414       .  A
C2013      H2026   1.077       .  S
C2014      C2020   1.429       .  A
C2014      C2015   1.422       .  A
C2015      C2017   1.399       .  A
C2015      C2016   1.403       .  A
C2016      H2027   1.084       .  S
C2017      C2018   1.389       .  A
C2017      H2028   1.084       .  S
C2018      C2019   1.399       .  A
C2018      H2029   1.084       .  S
C2019      C2020   1.422       .  A
C2019      C2024   1.403       .  A
C2020      C2021   1.415       .  A
C2021      C2022   1.397       .  A
C2021      H2030   1.077       .  S
C2022      C2023   1.400       .  A
C2022      H2031   1.083       .  S
C2023      C2024   1.401       .  A
C2024      H2032   1.085       .  S
C2033      C2034   1.399       .  A
C2033      C2038   1.400       .  A
C2034      C2035   1.397       .  A
C2034      H2047   1.083       .  S
C2035      C2036   1.416       .  A
C2035      H2048   1.077       .  S
C2036      C2042   1.429       .  A
C2036      C2037   1.422       .  A
C2037      C2039   1.399       .  A
C2037      C2038   1.402       .  A
C2038      H2049   1.085       .  S
C2039      C2040   1.389       .  A
C2039      H2050   1.084       .  S
C2040      C2041   1.399       .  A
C2040      H2051   1.084       .  S
C2041      C2042   1.422       .  A
C2041      C2046   1.403       .  A
C2042      C2043   1.413       .  A
C2043      C2044   1.395       .  A
C2043      H2052   1.077       .  S
C2044      C2045   1.402       .  A
C2044      H2053   1.083       .  S
C2045      C2046   1.403       .  A
C2046      H2054   1.084       .  S
C2055      C2056   1.399       .  A
C2055      C2060   1.399       .  A
C2056      C2057   1.394       .  A
C2056      H2069   1.084       .  S
C2057      C2058   1.414       .  A
C2057      H2070   1.077       .  S
C2058      C2064   1.428       .  A
C2058      C2059   1.423       .  A
C2059      C2061   1.399       .  A
C2059      C2060   1.404       .  A
C2060      H2071   1.085       .  S
C2061      C2062   1.389       .  A
C2061      H2072   1.084       .  S
C2062      C2063   1.399       .  A
C2062      H2073   1.084       .  S
C2063      C2064   1.422       .  A
C2063      C2068   1.404       .  A
C2064      C2065   1.414       .  A
C2065      C2066   1.394       .  A
C2065      H2074   1.077       .  S
C2066      C2067   1.401       .  A
C2066      H2075   1.083       .  S
C2067      C2068   1.402       .  A
C2068      H2076   1.084       .  S
C2077      C2078   1.399       .  A
C2077      C2082   1.400       .  A
C2078      C2079   1.396       .  A
C2078      H2091   1.083       .  S
C2079      C2080   1.415       .  A
C2079      H2092   1.077       .  S
C2080      C2086   1.428       .  A
C2080      C2081   1.422       .  A
C2081      C2083   1.399       .  A
C2081      C2082   1.403       .  A
C2082      H2093   1.085       .  S
C2083      C2084   1.389       .  A
C2083      H2094   1.084       .  S
C2084      C2085   1.399       .  A
C2084      H2095   1.084       .  S
C2085      C2086   1.421       .  A
C2085      C2090   1.404       .  A
C2086      C2087   1.413       .  A
C2087      C2088   1.395       .  A
C2087      H2096   1.078       .  S
C2088      C2089   1.403       .  A
C2088      H2097   1.083       .  S
C2089      C2090   1.404       .  A
C2090      H2098   1.084       .  S
C2099      C2100   1.402       .  A
C2099      C2104   1.404       .  A
C2100      C2101   1.390       .  A
C2100      H2113   1.083       .  S
C2101      C2102   1.411       .  A
C2101      H2114   1.077       .  S
C2102      C2108   1.424       .  A
C2102      C2103   1.421       .  A
C2103      C2105   1.400       .  A
C2103      C2104   1.405       .  A
C2104      H2115   1.084       .  S
C2105      C2106   1.392       .  A
C2105      H2116   1.084       .  S
C2106      C2107   1.400       .  A
C2106      H2117   1.084       .  S
C2107      C2108   1.422       .  A
C2107      C2112   1.405       .  A
C2108      C2109   1.413       .  A
C2109      C2110   1.390       .  A
C2109      H2118   1.077       .  S
C2110      C2111   1.399       .  A
C2110      H2119   1.084       .  S
C2111      C2112   1.401       .  A
C2112      H2120   1.084       .  S
C2121      C2122   1.399       .  A
C2121      C2126   1.402       .  A
C2122      C2123   1.397       .  A
C2122      H2135   1.083       .  S
C2123      C2124   1.415       .  A
C2123      H2136   1.078       .  S
C2124      C2130   1.428       .  A
C2124      C2125   1.421       .  A
C2125      C2127   1.400       .  A
C2125      C2126   1.403       .  A
C2126      H2137   1.085       .  S
C2127      C2128   1.390       .  A
C2127      H2138   1.084       .  S
C2128      C2129   1.399       .  A
C2128      H2139   1.084       .  S
C2129      C2130   1.422       .  A
C2129      C2134   1.405       .  A
C2130      C2131   1.413       .  A
C2131      C2132   1.395       .  A
C2131      H2140   1.078       .  S
C2132      C2133   1.404       .  A
C2132      H2141   1.083       .  S
C2133      C2134   1.404       .  A
C2134      H2142   1.084       .  S
C2143      C2144   1.406       .  A
C2143      C2148   1.407       .  A
C2144      C2145   1.392       .  A
C2144      H2157   1.082       .  S
C2145      C2146   1.411       .  A
C2145      H2158   1.078       .  S
C2146      C2152   1.425       .  A
C2146      C2147   1.420       .  A
C2147      C2149   1.400       .  A
C2147      C2148   1.405       .  A
C2148      H2159   1.082       .  S
C2149      C2150   1.391       .  A
C2149      H2160   1.084       .  S
C2150      C2151   1.400       .  A
C2150      H2161   1.084       .  S
C2151      C2152   1.421       .  A
C2151      C2156   1.404       .  A
C2152      C2153   1.413       .  A
C2153      C2154   1.393       .  A
C2153      H2162   1.078       .  S
C2154      C2155   1.400       .  A
C2154      H2163   1.083       .  S
C2155      C2156   1.403       .  A
C2156      H2164   1.084       .  S
C2165      C2166   1.401       .  A
C2165      C2170   1.403       .  A
C2166      C2167   1.395       .  A
C2166      H2179   1.083       .  S
C2167      C2168   1.414       .  A
C2167      H2180   1.077       .  S
C2168      C2174   1.427       .  A
C2168      C2169   1.421       .  A
C2169      C2171   1.399       .  A
C2169      C2170   1.402       .  A
C2170      H2181   1.084       .  S
C2171      C2172   1.388       .  A
C2171      H2182   1.084       .  S
C2172      C2173   1.399       .  A
C2172      H2183   1.084       .  S
C2173      C2174   1.422       .  A
C2173      C2178   1.401       .  A
C2174      C2175   1.415       .  A
C2175      C2176   1.395       .  A
C2175      H2184   1.077       .  S
C2176      C2177   1.399       .  A
C2176      H2185   1.083       .  S
C2177      C2178   1.400       .  A
C2178      H2186   1.085       .  S
C2187      C2188   1.402       .  A
C2187      C2192   1.403       .  A
C2188      C2189   1.394       .  A
C2188      H2201   1.083       .  S
C2189      C2190   1.413       .  A
C2189      H2202   1.077       .  S
C2190      C2196   1.428       .  A
C2190      C2191   1.422       .  A
C2191      C2193   1.400       .  A
C2191      C2192   1.405       .  A
C2192      H2203   1.084       .  S
C2193      C2194   1.390       .  A
C2193      H2204   1.084       .  S
C2194      C2195   1.400       .  A
C2194      H2205   1.084       .  S
C2195      C2196   1.422       .  A
C2195      C2200   1.405       .  A
C2196      C2197   1.414       .  A
C2197      C2198   1.394       .  A
C2197      H2206   1.077       .  S
C2198      C2199   1.399       .  A
C2198      H2207   1.083       .  S
C2199      C2200   1.401       .  A
C2200      H2208   1.085       .  S
C2209      C2210   1.401       .  A
C2209      C2214   1.400       .  A
C2210      C2211   1.396       .  A
C2210      H2223   1.083       .  S
C2211      C2212   1.414       .  A
C2211      H2224   1.077       .  S
C2212      C2218   1.429       .  A
C2212      C2213   1.423       .  A
C2213      C2215   1.399       .  A
C2213      C2214   1.403       .  A
C2214      H2225   1.084       .  S
C2215      C2216   1.388       .  A
C2215      H2226   1.084       .  S
C2216      C2217   1.399       .  A
C2216      H2227   1.084       .  S
C2217      C2218   1.422       .  A
C2217      C2222   1.402       .  A
C2218      C2219   1.417       .  A
C2219      C2220   1.398       .  A
C2219      H2228   1.077       .  S
C2220      C2221   1.399       .  A
C2220      H2229   1.083       .  S
C2221      C2222   1.400       .  A
C2222      H2230   1.085       .  S
C2231      C2232   1.401       .  A
C2231      C2236   1.403       .  A
C2232      C2233   1.400       .  A
C2232      H2245   1.083       .  S
C2233      C2234   1.417       .  A
C2233      H2246   1.077       .  S
C2234      C2240   1.430       .  A
C2234      C2235   1.421       .  A
C2235      C2237   1.399       .  A
C2235      C2236   1.400       .  A
C2236      H2247   1.084       .  S
C2237      C2238   1.387       .  A
C2237      H2248   1.084       .  S
C2238      C2239   1.398       .  A
C2238      H2249   1.084       .  S
C2239      C2240   1.424       .  A
C2239      C2244   1.403       .  A
C2240      C2241   1.415       .  A
C2241      C2242   1.398       .  A
C2241      H2250   1.077       .  S
C2242      C2243   1.399       .  A
C2242      H2251   1.083       .  S
C2243      C2244   1.398       .  A
C2244      H2252   1.085       .  S
C2253      C2254   1.402       .  A
C2253      C2258   1.403       .  A
C2254      C2255   1.394       .  A
C2254      H2267   1.083       .  S
C2255      C2256   1.413       .  A
C2255      H2268   1.077       .  S
C2256      C2262   1.428       .  A
C2256      C2257   1.422       .  A
C2257      C2259   1.399       .  A
C2257      C2258   1.404       .  A
C2258      H2269   1.084       .  S
C2259      C2260   1.389       .  A
C2259      H2270   1.084       .  S
C2260      C2261   1.399       .  A
C2260      H2271   1.084       .  S
C2261      C2262   1.422       .  A
C2261      C2266   1.403       .  A
C2262      C2263   1.415       .  A
C2263      C2264   1.395       .  A
C2263      H2272   1.077       .  S
C2264      C2265   1.399       .  A
C2264      H2273   1.083       .  S
C2265      C2266   1.399       .  A
C2266      H2274   1.085       .  S
C2275      C2276   1.400       .  A
C2275      C2280   1.400       .  A
C2276      C2277   1.397       .  A
C2276      H2289   1.083       .  S
C2277      C2278   1.415       .  A
C2277      H2290   1.077       .  S
C2278      C2284   1.429       .  A
C2278      C2279   1.422       .  A
C2279      C2281   1.399       .  A
C2279      C2280   1.402       .  A
C2280      H2291   1.085       .  S
C2281      C2282   1.388       .  A
C2281      H2292   1.084       .  S
C2282      C2283   1.399       .  A
C2282      H2293   1.084       .  S
C2283      C2284   1.422       .  A
C2283      C2288   1.402       .  A
C2284      C2285   1.414       .  A
C2285      C2286   1.396       .  A
C2285      H2294   1.077       .  S
C2286      C2287   1.402       .  A
C2286      H2295   1.083       .  S
C2287      C2288   1.401       .  A
C2288      H2296   1.084       .  S
C2297      C2298   1.403       .  A
C2297      C2302   1.403       .  A
C2298      C2299   1.396       .  A
C2298      H2311   1.083       .  S
C2299      C2300   1.414       .  A
C2299      H2312   1.077       .  S
C2300      C2306   1.430       .  A
C2300      C2301   1.422       .  A
C2301      C2303   1.399       .  A
C2301      C2302   1.405       .  A
C2302      H2313   1.084       .  S
C2303      C2304   1.389       .  A
C2303      H2314   1.084       .  S
C2304      C2305   1.399       .  A
C2304      H2315   1.084       .  S
C2305      C2306   1.423       .  A
C2305      C2310   1.405       .  A
C2306      C2307   1.415       .  A
C2307      C2308   1.397       .  A
C2307      H2316   1.077       .  S
C2308      C2309   1.400       .  A
C2308      H2317   1.083       .  S
C2309      C2310   1.400       .  A
C2310      H2318   1.085       .  S
C2319      C2320   1.403       .  A
C2319      C2324   1.406       .  A
C2320      C2321   1.393       .  A
C2320      H2333   1.082       .  S
C2321      C2322   1.413       .  A
C2321      H2334   1.077       .  S
C2322      C2328   1.428       .  A
C2322      C2323   1.421       .  A
C2323      C2325   1.401       .  A
C2323      C2324   1.407       .  A
C2324      H2335   1.084       .  S
C2325      C2326   1.392       .  A
C2325      H2336   1.084       .  S
C2326      C2327   1.400       .  A
C2326      H2337   1.084       .  S
C2327      C2328   1.422       .  A
C2327      C2332   1.407       .  A
C2328      C2329   1.414       .  A
C2329      C2330   1.393       .  A
C2329      H2338   1.077       .  S
C2330      C2331   1.399       .  A
C2330      H2339   1.083       .  S
C2331      C2332   1.402       .  A
C2332      H2340   1.084       .  S
C2341      C2342   1.399       .  A
C2341      C2346   1.401       .  A
C2342      C2343   1.396       .  A
C2342      H2355   1.083       .  S
C2343      C2344   1.415       .  A
C2343      H2356   1.077       .  S
C2344      C2350   1.430       .  A
C2344      C2345   1.423       .  A
C2345      C2347   1.399       .  A
C2345      C2346   1.405       .  A
C2346      H2357   1.085       .  S
C2347      C2348   1.390       .  A
C2347      H2358   1.084       .  S
C2348      C2349   1.400       .  A
C2348      H2359   1.084       .  S
C2349      C2350   1.421       .  A
C2349      C2354   1.406       .  A
C2350      C2351   1.414       .  A
C2351      C2352   1.396       .  A
C2351      H2360   1.077       .  S
C2352      C2353   1.403       .  A
C2352      H2361   1.083       .  S
C2353      C2354   1.405       .  A
C2354      H2362   1.084       .  S
C2363      C2364   1.400       .  A
C2363      C2368   1.402       .  A
C2364      C2365   1.396       .  A
C2364      H2377   1.083       .  S
C2365      C2366   1.414       .  A
C2365      H2378   1.077       .  S
C2366      C2372   1.429       .  A
C2366      C2367   1.422       .  A
C2367      C2369   1.399       .  A
C2367      C2368   1.405       .  A
C2368      H2379   1.084       .  S
C2369      C2370   1.390       .  A
C2369      H2380   1.084       .  S
C2370      C2371   1.400       .  A
C2370      H2381   1.084       .  S
C2371      C2372   1.420       .  A
C2371      C2376   1.404       .  A
C2372      C2373   1.413       .  A
C2373      C2374   1.396       .  A
C2373      H2382   1.078       .  S
C2374      C2375   1.404       .  A
C2374      H2383   1.082       .  S
C2375      C2376   1.406       .  A
C2376      H2384   1.083       .  S
C2385      C2386   1.399       .  A
C2385      C2390   1.399       .  A
C2386      C2387   1.397       .  A
C2386      H2399   1.083       .  S
C2387      C2388   1.415       .  A
C2387      H2400   1.077       .  S
C2388      C2394   1.430       .  A
C2388      C2389   1.423       .  A
C2389      C2391   1.399       .  A
C2389      C2390   1.404       .  A
C2390      H2401   1.085       .  S
C2391      C2392   1.389       .  A
C2391      H2402   1.084       .  S
C2392      C2393   1.399       .  A
C2392      H2403   1.084       .  S
C2393      C2394   1.421       .  A
C2393      C2398   1.403       .  A
C2394      C2395   1.416       .  A
C2395      C2396   1.398       .  A
C2395      H2404   1.077       .  S
C2396      C2397   1.402       .  A
C2396      H2405   1.083       .  S
C2397      C2398   1.403       .  A
C2398      H2406   1.084       .  S
C2407      C2408   1.404       .  A
C2407      C2412   1.405       .  A
C2408      C2409   1.392       .  A
C2408      H2421   1.083       .  S
C2409      C2410   1.411       .  A
C2409      H2422   1.078       .  S
C2410      C2416   1.426       .  A
C2410      C2411   1.421       .  A
C2411      C2413   1.400       .  A
C2411      C2412   1.405       .  A
C2412      H2423   1.083       .  S
C2413      C2414   1.391       .  A
C2413      H2424   1.084       .  S
C2414      C2415   1.400       .  A
C2414      H2425   1.084       .  S
C2415      C2416   1.420       .  A
C2415      C2420   1.404       .  A
C2416      C2417   1.414       .  A
C2417      C2418   1.394       .  A
C2417      H2426   1.078       .  S
C2418      C2419   1.400       .  A
C2418      H2427   1.083       .  S
C2419      C2420   1.403       .  A
C2420      H2428   1.084       .  S
C2429      C2430   1.400       .  A
C2429      C2434   1.401       .  A
C2430      C2431   1.397       .  A
C2430      H2443   1.083       .  S
C2431      C2432   1.415       .  A
C2431      H2444   1.077       .  S
C2432      C2438   1.430       .  A
C2432      C2433   1.423       .  A
C2433      C2435   1.399       .  A
C2433      C2434   1.405       .  A
C2434      H2445   1.085       .  S
C2435      C2436   1.390       .  A
C2435      H2446   1.084       .  S
C2436      C2437   1.400       .  A
C2436      H2447   1.084       .  S
C2437      C2438   1.421       .  A
C2437      C2442   1.405       .  A
C2438      C2439   1.414       .  A
C2439      C2440   1.396       .  A
C2439      H2448   1.078       .  S
C2440      C2441   1.404       .  A
C2440      H2449   1.082       .  S
C2441      C2442   1.405       .  A
C2442      H2450   1.084       .  S
C2451      C2452   1.399       .  A
C2451      C2456   1.400       .  A
C2452      C2453   1.396       .  A
C2452      H2465   1.084       .  S
C2453      C2454   1.415       .  A
C2453      H2466   1.077       .  S
C2454      C2460   1.431       .  A
C2454      C2455   1.423       .  A
C2455      C2457   1.399       .  A
C2455      C2456   1.407       .  A
C2456      H2467   1.085       .  S
C2457      C2458   1.390       .  A
C2457      H2468   1.084       .  S
C2458      C2459   1.400       .  A
C2458      H2469   1.084       .  S
C2459      C2460   1.421       .  A
C2459      C2464   1.405       .  A
C2460      C2461   1.415       .  A
C2461      C2462   1.397       .  A
C2461      H2470   1.077       .  S
C2462      C2463   1.402       .  A
C2462      H2471   1.083       .  S
C2463      C2464   1.404       .  A
C2464      H2472   1.084       .  S
C2473      C2474   1.404       .  A
C2473      C2478   1.405       .  A
C2474      C2475   1.398       .  A
C2474      H2487   1.083       .  S
C2475      C2476   1.414       .  A
C2475      H2488   1.078       .  S
C2476      C2482   1.431       .  A
C2476      C2477   1.421       .  A
C2477      C2479   1.400       .  A
C2477      C2478   1.405       .  A
C2478      H2489   1.083       .  S
C2479      C2480   1.390       .  A
C2479      H2490   1.084       .  S
C2480      C2481   1.399       .  A
C2480      H2491   1.084       .  S
C2481      C2482   1.423       .  A
C2481      C2486   1.405       .  A
C2482      C2483   1.415       .  A
C2483      C2484   1.398       .  A
C2483      H2492   1.077       .  S
C2484      C2485   1.400       .  A
C2484      H2493   1.083       .  S
C2485      C2486   1.401       .  A
C2486      H2494   1.085       .  S
C2495      C2496   1.403       .  A
C2495      C2500   1.404       .  A
C2496      C2497   1.395       .  A
C2496      H2509   1.083       .  S
C2497      C2498   1.413       .  A
C2497      H2510   1.077       .  S
C2498      C2504   1.429       .  A
C2498      C2499   1.422       .  A
C2499      C2501   1.400       .  A
C2499      C2500   1.406       .  A
C2500      H2511   1.084       .  S
C2501      C2502   1.390       .  A
C2501      H2512   1.084       .  S
C2502      C2503   1.399       .  A
C2502      H2513   1.084       .  S
C2503      C2504   1.422       .  A
C2503      C2508   1.405       .  A
C2504      C2505   1.415       .  A
C2505      C2506   1.396       .  A
C2505      H2514   1.077       .  S
C2506      C2507   1.399       .  A
C2506      H2515   1.084       .  S
C2507      C2508   1.400       .  A
C2508      H2516   1.085       .  S
C2517      C2518   1.401       .  A
C2517      C2522   1.401       .  A
C2518      C2519   1.398       .  A
C2518      H2531   1.083       .  S
C2519      C2520   1.415       .  A
C2519      H2532   1.077       .  S
C2520      C2526   1.431       .  A
C2520      C2521   1.423       .  A
C2521      C2523   1.399       .  A
C2521      C2522   1.406       .  A
C2522      H2533   1.084       .  S
C2523      C2524   1.389       .  A
C2523      H2534   1.084       .  S
C2524      C2525   1.399       .  A
C2524      H2535   1.084       .  S
C2525      C2526   1.421       .  A
C2525      C2530   1.404       .  A
C2526      C2527   1.415       .  A
C2527      C2528   1.398       .  A
C2527      H2536   1.077       .  S
C2528      C2529   1.404       .  A
C2528      H2537   1.083       .  S
C2529      C2530   1.404       .  A
C2530      H2538   1.084       .  S
C2539      C2540   1.404       .  A
C2539      C2544   1.405       .  A
C2540      C2541   1.391       .  A
C2540      H2553   1.082       .  S
C2541      C2542   1.412       .  A
C2541      H2554   1.077       .  S
C2542      C2548   1.426       .  A
C2542      C2543   1.421       .  A
C2543      C2545   1.400       .  A
C2543      C2544   1.405       .  A
C2544      H2555   1.083       .  S
C2545      C2546   1.391       .  A
C2545      H2556   1.084       .  S
C2546      C2547   1.400       .  A
C2546      H2557   1.084       .  S
C2547      C2548   1.422       .  A
C2547      C2552   1.406       .  A
C2548      C2549   1.413       .  A
C2549      C2550   1.392       .  A
C2549      H2558   1.077       .  S
C2550      C2551   1.400       .  A
C2550      H2559   1.083       .  S
C2551      C2552   1.403       .  A
C2552      H2560   1.084       .  S
C2561      C2562   1.402       .  A
C2561      C2566   1.405       .  A
C2562      C2563   1.395       .  A
C2562      H2575   1.082       .  S
C2563      C2564   1.414       .  A
C2563      H2576   1.077       .  S
C2564      C2570   1.428       .  A
C2564      C2565   1.420       .  A
C2565      C2567   1.400       .  A
C2565      C2566   1.403       .  A
C2566      H2577   1.084       .  S
C2567      C2568   1.390       .  A
C2567      H2578   1.084       .  S
C2568      C2569   1.399       .  A
C2568      H2579   1.084       .  S
C2569      C2570   1.423       .  A
C2569      C2574   1.405       .  A
C2570      C2571   1.414       .  A
C2571      C2572   1.394       .  A
C2571      H2580   1.077       .  S
C2572      C2573   1.400       .  A
C2572      H2581   1.083       .  S
C2573      C2574   1.402       .  A
C2574      H2582   1.084       .  S
C2583      C2584   1.402       .  A
C2583      C2588   1.404       .  A
C2584      C2585   1.399       .  A
C2584      H2597   1.083       .  S
C2585      C2586   1.416       .  A
C2585      H2598   1.077       .  S
C2586      C2592   1.429       .  A
C2586      C2587   1.420       .  A
C2587      C2589   1.399       .  A
C2587      C2588   1.400       .  A
C2588      H2599   1.084       .  S
C2589      C2590   1.387       .  A
C2589      H2600   1.084       .  S
C2590      C2591   1.398       .  A
C2590      H2601   1.084       .  S
C2591      C2592   1.424       .  A
C2591      C2596   1.403       .  A
C2592      C2593   1.414       .  A
C2593      C2594   1.395       .  A
C2593      H2602   1.077       .  S
C2594      C2595   1.400       .  A
C2594      H2603   1.083       .  S
C2595      C2596   1.399       .  A
C2596      H2604   1.085       .  S
C2605      C2606   1.403       .  A
C2605      C2610   1.407       .  A
C2606      C2607   1.393       .  A
C2606      H2619   1.082       .  S
C2607      C2608   1.413       .  A
C2607      H2620   1.078       .  S
C2608      C2614   1.427       .  A
C2608      C2609   1.420       .  A
C2609      C2611   1.401       .  A
C2609      C2610   1.406       .  A
C2610      H2621   1.083       .  S
C2611      C2612   1.393       .  A
C2611      H2622   1.084       .  S
C2612      C2613   1.400       .  A
C2612      H2623   1.084       .  S
C2613      C2614   1.422       .  A
C2613      C2618   1.407       .  A
C2614      C2615   1.413       .  A
C2615      C2616   1.393       .  A
C2615      H2624   1.078       .  S
C2616      C2617   1.400       .  A
C2616      H2625   1.083       .  S
C2617      C2618   1.403       .  A
C2618      H2626   1.084       .  S
C2627      C2628   1.404       .  A
C2627      C2632   1.406       .  A
C2628      C2629   1.397       .  A
C2628      H2641   1.082       .  S
C2629      C2630   1.414       .  A
C2629      H2642   1.078       .  S
C2630      C2636   1.429       .  A
C2630      C2631   1.420       .  A
C2631      C2633   1.400       .  A
C2631      C2632   1.403       .  A
C2632      H2643   1.083       .  S
C2633      C2634   1.389       .  A
C2633      H2644   1.084       .  S
C2634      C2635   1.399       .  A
C2634      H2645   1.084       .  S
C2635      C2636   1.424       .  A
C2635      C2640   1.405       .  A
C2636      C2637   1.413       .  A
C2637      C2638   1.395       .  A
C2637      H2646   1.077       .  S
C2638      C2639   1.401       .  A
C2638      H2647   1.083       .  S
C2639      C2640   1.400       .  A
C2640      H2648   1.085       .  S
C2649      C2650   1.401       .  A
C2649      C2654   1.404       .  A
C2650      C2651   1.394       .  A
C2650      H2663   1.083       .  S
C2651      C2652   1.414       .  A
C2651      H2664   1.077       .  S
C2652      C2658   1.428       .  A
C2652      C2653   1.421       .  A
C2653      C2655   1.400       .  A
C2653      C2654   1.405       .  A
C2654      H2665   1.084       .  S
C2655      C2656   1.391       .  A
C2655      H2666   1.084       .  S
C2656      C2657   1.400       .  A
C2656      H2667   1.084       .  S
C2657      C2658   1.423       .  A
C2657      C2662   1.405       .  A
C2658      C2659   1.415       .  A
C2659      C2660   1.394       .  A
C2659      H2668   1.077       .  S
C2660      C2661   1.397       .  A
C2660      H2669   1.084       .  S
C2661      C2662   1.400       .  A
C2662      H2670   1.085       .  S
C2671      C2672   1.404       .  A
C2671      C2676   1.406       .  A
C2672      C2673   1.395       .  A
C2672      H2685   1.082       .  S
C2673      C2674   1.413       .  A
C2673      H2686   1.077       .  S
C2674      C2680   1.429       .  A
C2674      C2675   1.421       .  A
C2675      C2677   1.400       .  A
C2675      C2676   1.405       .  A
C2676      H2687   1.083       .  S
C2677      C2678   1.391       .  A
C2677      H2688   1.084       .  S
C2678      C2679   1.400       .  A
C2678      H2689   1.084       .  S
C2679      C2680   1.422       .  A
C2679      C2684   1.406       .  A
C2680      C2681   1.414       .  A
C2681      C2682   1.396       .  A
C2681      H2690   1.077       .  S
C2682      C2683   1.400       .  A
C2682      H2691   1.083       .  S
C2683      C2684   1.402       .  A
C2684      H2692   1.084       .  S
C2693      C2694   1.401       .  A
C2693      C2698   1.405       .  A
C2694      C2695   1.394       .  A
C2694      H2707   1.083       .  S
C2695      C2696   1.413       .  A
C2695      H2708   1.077       .  S
C2696      C2702   1.428       .  A
C2696      C2697   1.422       .  A
C2697      C2699   1.400       .  A
C2697      C2698   1.406       .  A
C2698      H2709   1.084       .  S
C2699      C2700   1.391       .  A
C2699      H2710   1.084       .  S
C2700      C2701   1.400       .  A
C2700      H2711   1.084       .  S
C2701      C2702   1.422       .  A
C2701      C2706   1.405       .  A
C2702      C2703   1.416       .  A
C2703      C2704   1.396       .  A
C2703      H2712   1.077       .  S
C2704      C2705   1.398       .  A
C2704      H2713   1.083       .  S
C2705      C2706   1.402       .  A
C2706      H2714   1.085       .  S
C2715      C2716   1.403       .  A
C2715      C2720   1.404       .  A
C2716      C2717   1.392       .  A
C2716      H2729   1.082       .  S
C2717      C2718   1.411       .  A
C2717      H2730   1.078       .  S
C2718      C2724   1.426       .  A
C2718      C2719   1.421       .  A
C2719      C2721   1.400       .  A
C2719      C2720   1.404       .  A
C2720      H2731   1.084       .  S
C2721      C2722   1.390       .  A
C2721      H2732   1.084       .  S
C2722      C2723   1.399       .  A
C2722      H2733   1.084       .  S
C2723      C2724   1.421       .  A
C2723      C2728   1.402       .  A
C2724      C2725   1.415       .  A
C2725      C2726   1.394       .  A
C2725      H2734   1.078       .  S
C2726      C2727   1.398       .  A
C2726      H2735   1.083       .  S
C2727      C2728   1.401       .  A
C2728      H2736   1.085       .  S
