geometry optimzed in LAMMPS
_audit_creation_date              2020-12-01 
_audit_creation_method            'lammps2cif' 
_symmetry_space_group_name_H-M    'P1' 
_symmetry_Int_Tables_number       1 
_symmetry_cell_setting            triclinic 
loop_ 
_symmetry_equiv_pos_as_xyz 
  x,y,z 
_cell_length_a                    41.78391887 
_cell_length_b                    41.66719182004016 
_cell_length_c                    74.08673608914613 
_cell_angle_alpha                 89.97696216877402 
_cell_angle_beta                  90.22127065991427 
_cell_angle_gamma                 120.26033217976153 
loop_ 
_atom_site_label 
_atom_site_type_symbol 
_atom_site_fract_x 
_atom_site_fract_y 
_atom_site_fract_z 
_atom_site_charge 
C1          C  0.27801718  0.15185738  0.31346799     0.80800
N2          N  0.29490728  0.13863678  0.32444004    -0.77500
C3          C  0.27498834  0.10418015  0.33201821     0.83200
N4          N  0.23795870  0.08304466  0.32832842    -0.77500
C5          C  0.22100170  0.09609369  0.31722866     0.83300
N6          N  0.24140484  0.13043537  0.31001634    -0.79200
O7          O  0.41942739  0.07520845  0.43656556    -0.57300
C8          C  0.41715812  0.00463028  0.39819310     0.75400
O9          O  0.31286309  0.96893673  0.41904674    -0.58400
C10         C  0.39827140  0.08482174  0.44404520     0.75300
C11         C  0.34064852  0.05653929  0.38782564     0.77700
Cd12       Cd  0.37085246  0.02973937  0.41562979     1.37500
O13         O  0.39430911  0.98736754  0.41060659    -0.57300
O14         O  0.37244436  0.07711454  0.39459485    -0.56100
C15         C  0.31874505  0.96376949  0.43532292     0.77700
O16         O  0.32282264  0.02373714  0.39397806    -0.58400
O17         O  0.42085961  0.03578277  0.39404664    -0.56900
O18         O  0.36548231  0.06956116  0.43801063    -0.56900
O19         O  0.34720563  0.99012295  0.44271290    -0.56100
C20         C  0.43415117  0.22871861  0.52420289     0.80800
N21         N  0.47088671  0.24659345  0.52836659    -0.77500
C22         C  0.49446813  0.23884350  0.51944308     0.83200
N23         N  0.48071845  0.21260811  0.50630071    -0.77500
C24         C  0.44417218  0.19415406  0.50188224     0.83300
N25         N  0.42082571  0.20248832  0.51087365    -0.79200
C26         C  0.70953200  0.38287502  0.53218745     0.03700
C27         C  0.67091422  0.36089208  0.53061769    -0.12500
C28         C  0.65346367  0.32206913  0.53118396     0.01200
C29         C  0.67483412  0.30508758  0.53357666    -0.11000
C30         C  0.71355106  0.32659278  0.53546473     0.03700
C31         C  0.73064831  0.36562507  0.53495916    -0.10400
H32         H  0.65454310  0.37399067  0.52814842     0.09300
H33         H  0.66134716  0.27506836  0.53320277     0.06800
H34         H  0.76058490  0.38249411  0.53555415     0.06600
C35         C  0.91227217  0.75085089  0.30551139     0.80800
N36         N  0.88336836  0.73488799  0.31736171    -0.77500
C37         C  0.87037959  0.75587259  0.32514905     0.83200
N38         N  0.88679824  0.79257017  0.32102764    -0.77500
C39         C  0.91535939  0.80866323  0.30928181     0.83300
N40         N  0.92803121  0.78765759  0.30172239    -0.79200
O41         O  0.75371568  0.72311788  0.39230735    -0.57300
C42         C  0.68780197  0.72299082  0.42872877     0.75400
O43         O  0.63866874  0.63163540  0.41248497    -0.58400
C44         C  0.76098535  0.70223891  0.38284809     0.75300
C45         C  0.73702128  0.64560579  0.43926663     0.77700
Cd46       Cd  0.70668009  0.67224360  0.41160364     1.37500
O47         O  0.70448860  0.70925285  0.43709326    -0.57300
O48         O  0.75584900  0.67733983  0.43219783    -0.56100
C49         C  0.63434059  0.61871122  0.39667201     0.77700
O50         O  0.70452444  0.62555767  0.43304738    -0.58400
O51         O  0.68323201  0.71627299  0.41194725    -0.56900
O52         O  0.74289200  0.66799559  0.38663685    -0.56900
O53         O  0.66384790  0.62782157  0.38811255    -0.56100
C54         C  0.83968406  0.59801162  0.51637941     0.80800
N55         N  0.82516956  0.61280234  0.50484702    -0.77500
C56         C  0.79119695  0.59077277  0.49713572     0.83200
N57         N  0.77209098  0.55379529  0.50110164    -0.77500
C58         C  0.78648978  0.53884209  0.51262894     0.83300
N59         N  0.82028326  0.56121107  0.52014605    -0.79200
C60         C  0.86644294  0.10166917  0.31151889     0.80800
N61         N  0.88912408  0.08881974  0.30637716    -0.77500
C62         C  0.92390756  0.10387254  0.31325027     0.83200
N63         N  0.93531461  0.13143265  0.32570590    -0.77500
C64         C  0.91297284  0.14449616  0.33118193     0.83300
N65         N  0.87842164  0.12956916  0.32387507    -0.79200
O66         O  0.93975300  0.30817983  0.43590258    -0.57300
C67         C  0.01570454  0.37259992  0.39627343     0.75400
O68         O  0.04393047  0.30330868  0.43107930    -0.58400
C69         C  0.93152277  0.27969967  0.44533434     0.75300
C70         C  0.96391303  0.25088257  0.39055933     0.77700
Cd71       Cd  0.98973207  0.30695835  0.41856689     1.37500
O72         O  0.99005888  0.36440364  0.40761327    -0.57300
O73         O  0.94795912  0.26917646  0.39399341    -0.56100
C74         C  0.05586259  0.33275318  0.44034469     0.77700
O75         O  0.99116978  0.25754015  0.40063056    -0.58400
O76         O  0.02777516  0.35026808  0.39534254    -0.56900
O77         O  0.94939832  0.26333277  0.44192067    -0.56900
O78         O  0.03635356  0.34806986  0.43988721    -0.56100
C79         C  0.78652827  0.18565663  0.52642761     0.80800
N80         N  0.81143190  0.19522496  0.51272488    -0.77500
C81         C  0.82434577  0.22833750  0.50402242     0.83200
N82         N  0.81205839  0.25150543  0.50931194    -0.77500
C83         C  0.78748334  0.24258628  0.52294166     0.83300
N84         N  0.77466522  0.20938075  0.53130661    -0.79200
C85         C  0.06339641  0.02347732  0.30229342     0.03700
C86         C  0.04737055  0.04616852  0.30247000    -0.12500
C87         C  0.00867763  0.03027554  0.30332664     0.01200
C88         C  0.98618337  0.99139328  0.30379358    -0.11000
C89         C  0.00183832  0.96860918  0.30332292     0.03700
C90         C  0.04032634  0.98471530  0.30233426    -0.10400
H91         H  0.06502434  0.07609484  0.30250165     0.09300
H92         H  0.95636081  0.97874579  0.30473740     0.06800
H93         H  0.05241401  0.96701516  0.30233927     0.06600
C94         C  0.60858199  0.78240189  0.46693741     0.80800
N95         N  0.57160445  0.76530314  0.46337182    -0.77500
C96         C  0.54878664  0.77194115  0.47376352     0.83200
N97         N  0.56355679  0.79596528  0.48777960    -0.77500
C98         C  0.60031272  0.81336236  0.49159992     0.83300
N99         N  0.62276256  0.80619987  0.48120226    -0.79200
O100        O  0.62471028  0.97017977  0.59371399    -0.57300
C101        C  0.65113913  0.91706942  0.55167961     0.75400
O102        O  0.73415481  0.02880006  0.56878211    -0.58400
C103        C  0.64359780  0.99606072  0.60493749     0.75300
C104        C  0.70901312  0.93928155  0.60448555     0.77700
Cd105      Cd  0.67950317  0.97163682  0.58013220     1.37500
O106        O  0.62942880  0.91940194  0.56283817    -0.57300
O107        O  0.67461967  0.92605777  0.60209249    -0.56100
C108        C  0.71535154  0.04070293  0.56066609     0.77700
O109        O  0.73032515  0.96791591  0.59532521    -0.58400
O110        O  0.68529026  0.94020161  0.55372292    -0.56900
O111        O  0.67812590  0.00839102  0.60512806    -0.56900
O112        O  0.68051880  0.01983722  0.56104260    -0.56100
C113        C  0.75380352  0.83759738  0.68421115     0.80800
N114        N  0.73914326  0.84715970  0.67011813    -0.77500
C115        C  0.76131379  0.87731127  0.65974472     0.83200
N116        N  0.79809485  0.89702699  0.66347329    -0.77500
C117        C  0.81310860  0.88782319  0.67729159     0.83300
N118        N  0.79075838  0.85836888  0.68787877    -0.79200
C119        C  0.20022907  0.41269261  0.47426307     0.80800
N120        N  0.21458020  0.39822519  0.48613991    -0.77500
C121        C  0.24959619  0.41969389  0.49282912     0.83200
N122        N  0.26993785  0.45548736  0.48721927    -0.77500
C123        C  0.25617970  0.47015884  0.47520712     0.83300
N124        N  0.22114087  0.44863054  0.46892275    -0.79200
O125        O  0.35227897  0.28792021  0.58039217    -0.57300
C126        C  0.26849274  0.30379947  0.60400202     0.75400
O127        O  0.36986471  0.36655597  0.60574477    -0.58400
C128        C  0.35315232  0.28455276  0.56345170     0.75300
C129        C  0.30317363  0.36126932  0.54984993     0.77700
Cd130      Cd  0.33025116  0.33369254  0.57894808     1.37500
O131        O  0.27659721  0.28255943  0.59539232    -0.57300
O132        O  0.28797863  0.32718216  0.55376561    -0.56100
C133        C  0.40004150  0.38452743  0.59727404     0.77700
O134        O  0.33095008  0.38293073  0.55951422    -0.58400
O135        O  0.28903863  0.33820351  0.60103540    -0.56900
O136        O  0.34071614  0.30127954  0.55411882    -0.56900
O137        O  0.39748100  0.38170187  0.58024085    -0.56100
C138        C  0.11373097  0.26062478  0.67894674     0.80800
N139        N  0.14054248  0.27465710  0.66605569    -0.77500
C140        C  0.14953908  0.25181621  0.65699433     0.83200
N141        N  0.13102247  0.21493078  0.66092482    -0.77500
C142        C  0.10411271  0.20038453  0.67367587     0.83300
N143        N  0.09580480  0.22363216  0.68271458    -0.79200
C144        C  0.24564832  0.82023740  0.46984724     0.80800
N145        N  0.26043195  0.79900044  0.46482510    -0.77500
C146        C  0.25176803  0.76728502  0.47391693     0.83200
N147        N  0.22795855  0.75715822  0.48803334    -0.77500
C148        C  0.21290702  0.77786803  0.49334934     0.83300
N149        N  0.22231258  0.80982342  0.48425045    -0.79200
O150        O  0.04343929  0.63283118  0.58804696    -0.57300
C151        C  0.10453673  0.72047445  0.55182409     0.75400
O152        O  0.98620440  0.69217616  0.56903827    -0.58400
C153        C  0.01604306  0.62265319  0.59853399     0.75300
C154        C  0.07148835  0.74751063  0.60636239     0.77700
Cd155      Cd  0.04408742  0.69106024  0.57806419     1.37500
O156        O  0.09502926  0.69059102  0.56032998    -0.57300
O157        O  0.07797226  0.72094348  0.60670457    -0.56100
C158        C  0.97787315  0.66936767  0.55611815     0.77700
O159        O  0.05262601  0.74794196  0.59302773    -0.58400
O160        O  0.08695348  0.73681180  0.55588132    -0.56900
O161        O  0.00294676  0.64414703  0.59940504    -0.56900
O162        O  0.00037928  0.65802651  0.55335535    -0.56100
C163        C  0.16531343  0.90374266  0.68256705     0.80800
N164        N  0.14285819  0.91787285  0.68570389    -0.77500
C165        C  0.11088257  0.90611210  0.67632411     0.83200
N166        N  0.10157112  0.87971224  0.66333675    -0.77500
C167        C  0.12348600  0.86476499  0.66012147     0.83300
N168        N  0.15517822  0.87658674  0.66990575    -0.79200
C169        C  0.97006737  0.98141675  0.69002120     0.03700
C170        C  0.98990982  0.96270814  0.69137708    -0.12500
C171        C  0.02860158  0.98201894  0.68990578     0.01200
C172        C  0.04763553  0.02085123  0.68776948    -0.11000
C173        C  0.02810777  0.04016709  0.68625759     0.03700
C174        C  0.98915164  0.02004326  0.68743531    -0.10400
H175        H  0.97497288  0.93264246  0.69238560     0.09300
H176        H  0.07751420  0.03576257  0.68660728     0.06800
H177        H  0.97355290  0.03412531  0.68552745     0.06600
C178        C  0.33310681  0.62896024  0.46384858     0.03700
C179        C  0.37178419  0.65028924  0.46271725    -0.12500
C180        C  0.38964097  0.68911874  0.46178581     0.01200
C181        C  0.36823391  0.70651708  0.46201219    -0.11000
C182        C  0.32944475  0.68550902  0.46339203     0.03700
C183        C  0.31201563  0.64657598  0.46384188    -0.10400
H184        H  0.38800509  0.63662929  0.46336183     0.09300
H185        H  0.38194392  0.73657179  0.46194471     0.06800
H186        H  0.28211714  0.62996299  0.46474810     0.06600
C187        C  0.93875815  0.48388197  0.63771485     0.80800
N188        N  0.90196599  0.46374884  0.63372148    -0.77500
C189        C  0.88003511  0.43045989  0.64177938     0.83200
N190        N  0.89524861  0.41797419  0.65413688    -0.77500
C191        C  0.93179809  0.43755623  0.65842431     0.83300
N192        N  0.95363350  0.47079444  0.65007976    -0.79200
O193        O  0.96672490  0.35558444  0.72509027    -0.57300
C194        C  0.97329583  0.28994727  0.76772465     0.75400
O195        O  0.07129504  0.35481507  0.73692459    -0.58400
C196        C  0.98794994  0.38653358  0.71749853     0.75300
C197        C  0.03970460  0.41304751  0.77338263     0.77700
Cd198      Cd  0.01376157  0.35647547  0.74554130     1.37500
O199        O  0.95513896  0.30165811  0.75888644    -0.57300
O200        O  0.00683921  0.39756812  0.76743084    -0.56100
C201        C  0.05695212  0.33474535  0.72302351     0.77700
O202        O  0.06100656  0.40363724  0.76589776    -0.58400
O203        O  0.00802356  0.30861662  0.76589321    -0.56900
O204        O  0.02107577  0.40404275  0.72321828    -0.56900
O205        O  0.02390786  0.32607560  0.71948775    -0.56100
C206        C  0.09304021  0.56090764  0.85305967     0.80800
N207        N  0.13024930  0.57710611  0.85532083    -0.77500
C208        C  0.15054270  0.56519331  0.84643074     0.83200
N209        N  0.13304640  0.53580003  0.83506090    -0.77500
C210        C  0.09568454  0.51862735  0.83253433     0.83300
N211        N  0.07571014  0.53157877  0.84141076    -0.79200
C212        C  0.50506986  0.92750692  0.85025285     0.80800
N213        N  0.48358121  0.89107733  0.85477803    -0.77500
C214        C  0.44975002  0.86976448  0.84709495     0.83200
N215        N  0.43802521  0.88518556  0.83450134    -0.77500
C216        C  0.45900135  0.92138669  0.82965304     0.83300
N217        N  0.49268636  0.94274839  0.83770870    -0.79200
O218        O  0.37203407  0.95012844  0.76240155    -0.57300
C219        C  0.30235663  0.96246541  0.72378224     0.75400
O220        O  0.36995236  0.05763734  0.75677411    -0.58400
C221        C  0.39937265  0.97194338  0.77225198     0.75300
C222        C  0.42687754  0.02862152  0.71820721     0.77700
Cd223      Cd  0.36942604  0.00044281  0.74538162     1.37500
O224        O  0.31290550  0.94363649  0.73289824    -0.57300
O225        O  0.40522588  0.99430674  0.72089610    -0.56100
C226        C  0.34431007  0.03997880  0.76815772     0.77700
O227        O  0.42208582  0.05049372  0.72824001    -0.58400
O228        O  0.32327708  0.99736017  0.72442508    -0.56900
O229        O  0.41240613  0.00628849  0.76950701    -0.56900
O230        O  0.33207360  0.00537106  0.76908309    -0.56100
C231        C  0.57738725  0.07039359  0.64142310     0.80800
N232        N  0.59465900  0.10725119  0.63746814    -0.77500
C233        C  0.58376383  0.12966310  0.64514474     0.83200
N234        N  0.55552726  0.11471224  0.65714596    -0.77500
C235        C  0.53797805  0.07806806  0.66150023     0.83300
N236        N  0.54905572  0.05579176  0.65352757    -0.79200
C237        C  0.44668038  0.51552987  0.85409626     0.80800
N238        N  0.43422919  0.53935000  0.85751254    -0.77500
C239        C  0.44571778  0.57082647  0.84774966     0.83200
N240        N  0.47011676  0.57829413  0.83409748    -0.77500
C241        C  0.48337465  0.55505249  0.83053122     0.83300
N242        N  0.47172431  0.52372922  0.84060962    -0.79200
O243        O  0.59932881  0.63204816  0.76401433    -0.57300
C244        C  0.67539231  0.70714332  0.72892178     0.75400
O245        O  0.69706486  0.65508619  0.77461491    -0.58400
C246        C  0.59728476  0.60868883  0.77564398     0.75300
C247        C  0.62628294  0.57954268  0.72106442     0.77700
Cd248      Cd  0.65508517  0.63869659  0.74821973     1.37500
O249        O  0.67144858  0.70573660  0.74590109    -0.57300
O250        O  0.60863224  0.59534098  0.72591609    -0.56100
C251        C  0.72669490  0.66469992  0.76610449     0.77700
O252        O  0.65634816  0.58940281  0.72952727    -0.58400
O253        O  0.66690072  0.67680627  0.72128353    -0.56900
O254        O  0.62168092  0.59927323  0.77454760    -0.56900
O255        O  0.72326206  0.65973733  0.74918735    -0.56100
C256        C  0.53986402  0.44466723  0.63575706     0.80800
N257        N  0.55126211  0.47029776  0.64931359    -0.77500
C258        C  0.58145543  0.47799133  0.65962314     0.83200
N259        N  0.59923913  0.45866245  0.65665175    -0.77500
C260        C  0.58769702  0.43236162  0.64346805     0.83300
N261        N  0.55820458  0.42586038  0.63299242    -0.79200
C262        C  0.72025256  0.34794861  0.63289417     0.03700
C263        C  0.70114201  0.36748805  0.63149108    -0.12500
C264        C  0.66226037  0.34848749  0.63141941     0.01200
C265        C  0.64243591  0.30955003  0.63241223    -0.11000
C266        C  0.66124182  0.28960004  0.63397099     0.03700
C267        C  0.70015474  0.30902188  0.63392672    -0.10400
H268        H  0.71648184  0.39759709  0.63145165     0.09300
H269        H  0.61242534  0.29496637  0.63270383     0.06800
H270        H  0.71486253  0.29390559  0.63529718     0.06600
C271        C  0.36610648  0.71020904  0.85763850     0.03700
C272        C  0.32723347  0.68878257  0.85736878    -0.12500
C273        C  0.30940956  0.64984998  0.85751119     0.01200
C274        C  0.33060883  0.63241678  0.85795701    -0.11000
C275        C  0.36944844  0.65337780  0.85885798     0.03700
C276        C  0.38695003  0.69235571  0.85884007    -0.10400
H277        H  0.31091185  0.70232138  0.85642412     0.09300
H278        H  0.31670788  0.60244456  0.85688610     0.06800
H279        H  0.41691916  0.70887392  0.85904724     0.06600
C280        C  0.42056814  0.19568679  0.02480670     0.80800
N281        N  0.40412150  0.20572205  0.01176739    -0.77500
C282        C  0.42463719  0.23721242  0.00187774     0.83200
N283        N  0.46171124  0.25772758  0.00492528    -0.77500
C284        C  0.47862002  0.24794373  0.01760829     0.83300
N285        N  0.45771955  0.21684043  0.02751226    -0.79200
O286        O  0.36779437  0.34837485  0.88851592    -0.57300
C287        C  0.36618250  0.28658151  0.94321074     0.75400
O288        O  0.28122980  0.32107499  0.91378146    -0.58400
C289        C  0.37852505  0.37914301  0.89630817     0.75300
C290        C  0.31070804  0.24812288  0.88776984     0.77700
Cd291      Cd  0.33322070  0.30770718  0.91433956     1.37500
O292        O  0.38507041  0.31681039  0.93468565    -0.57300
O293        O  0.34434132  0.27015878  0.89167894    -0.56100
C294        C  0.27746145  0.32081985  0.93075978     0.77700
O295        O  0.28740226  0.25351685  0.89618894    -0.58400
O296        O  0.33294818  0.26655777  0.93808430    -0.56900
O297        O  0.37041729  0.37718869  0.91285751    -0.56900
O298        O  0.29655280  0.31083874  0.93987431    -0.56100
C299        C  0.26794470  0.09905203  0.80928734     0.80800
N300        N  0.28135547  0.12366009  0.82331677    -0.77500
C301        C  0.25902212  0.13411764  0.83173725     0.83200
N302        N  0.22379515  0.12030349  0.82562893    -0.77500
C303        C  0.21013152  0.09599851  0.81158298     0.83300
N304        N  0.23239477  0.08523587  0.80361206    -0.79200
C305        C  0.82837060  0.23363498  0.02052080     0.80800
N306        N  0.80693727  0.24887365  0.02412131    -0.77500
C307        C  0.77329895  0.23534903  0.01611343     0.83200
N308        N  0.76158286  0.20684707  0.00425791    -0.77500
C309        C  0.78223589  0.19105693  0.00043089     0.83300
N310        N  0.81586114  0.20459969  0.00869698    -0.79200
O311        O  0.75438681  0.02295389  0.89771457    -0.57300
C312        C  0.67311649  0.95459165  0.93595184     0.75400
O313        O  0.70474165  0.07286568  0.93384075    -0.58400
C314        C  0.76236821  0.05169214  0.88849624     0.75300
C315        C  0.64148419  0.00176717  0.89137419     0.77700
Cd316      Cd  0.70408105  0.02342289  0.91534921     1.37500
O317        O  0.70363045  0.96709919  0.92766142    -0.57300
O318        O  0.66274648  0.98839972  0.89086016    -0.56100
C319        C  0.73328435  0.08034390  0.94309474     0.77700
O320        O  0.64971130  0.02724798  0.90295197    -0.58400
O321        O  0.65814133  0.97440048  0.93505521    -0.56900
O322        O  0.74390058  0.06738211  0.89205162    -0.56900
O323        O  0.74874909  0.06175475  0.93936799    -0.56100
C324        C  0.91447191  0.15549510  0.81094070     0.80800
N325        N  0.92921179  0.13394142  0.80680536    -0.77500
C326        C  0.91757187  0.10080123  0.81494485     0.83200
N327        N  0.89038140  0.08909367  0.82745664    -0.77500
C328        C  0.87477611  0.10990478  0.83191081     0.83300
N329        N  0.88692594  0.14328965  0.82347819    -0.79200
C330        C  0.99517938  0.96248094  0.79645318     0.03700
C331        C  0.03402051  0.98371514  0.79666887    -0.12500
C332        C  0.05224469  0.02270198  0.79689875     0.01200
C333        C  0.03119381  0.04038810  0.79651270    -0.11000
C334        C  0.99230118  0.01957526  0.79651284     0.03700
C335        C  0.97448293  0.98055002  0.79624601    -0.10400
H336        H  0.04999120  0.96985812  0.79768913     0.09300
H337        H  0.04515153  0.07044168  0.79728252     0.06800
H338        H  0.94453650  0.96425414  0.79703551     0.06600
C339        C  0.80048284  0.59813714  0.02349637     0.80800
N340        N  0.78160039  0.56074649  0.02616089    -0.77500
C341        C  0.78850398  0.53794053  0.01589477     0.83200
N342        N  0.81514230  0.55322813  0.00304333    -0.77500
C343        C  0.83464719  0.59045743  0.00019137     0.83300
N344        N  0.82660526  0.61290081  0.01025264    -0.79200
O345        O  0.99602274  0.72414592  0.89687667    -0.57300
C346        C  0.06314934  0.71130249  0.93673867     0.75400
O347        O  0.94901363  0.62491157  0.93284481    -0.58400
C348        C  0.96911551  0.70260696  0.88673793     0.75300
C349        C  0.02454793  0.63200731  0.89267265     0.77700
Cd350      Cd  0.99808554  0.67315508  0.91374918     1.37500
O351        O  0.05691251  0.72851860  0.92432244    -0.57300
O352        O  0.04227193  0.66692343  0.89457735    -0.56100
C353        C  0.94053619  0.64635385  0.94102881     0.77700
O354        O  0.99276670  0.61502826  0.89993674    -0.58400
O355        O  0.03865152  0.67754119  0.93876826    -0.56900
O356        O  0.95675770  0.66821893  0.88895694    -0.56900
O357        O  0.95807411  0.68010074  0.93629382    -0.56100
C358        C  0.86314548  0.74514688  0.80758409     0.80800
N359        N  0.87453571  0.73093340  0.82116520    -0.77500
C360        C  0.90627175  0.75344241  0.83063077     0.83200
N361        N  0.92602251  0.79018259  0.82641507    -0.77500
C362        C  0.91507157  0.80483536  0.81307100     0.83300
N363        N  0.88374956  0.78199513  0.80363988    -0.79200
C364        C  0.63917779  0.32087237  0.02182073     0.03700
C365        C  0.66188285  0.35977087  0.02105806    -0.12500
C366        C  0.70064006  0.37660649  0.01990163     0.01200
C367        C  0.71668193  0.35413772  0.02015100    -0.11000
C368        C  0.69443653  0.31541532  0.02048269     0.03700
C369        C  0.65581185  0.29885753  0.02109999    -0.10400
H370        H  0.64934741  0.37703582  0.02122606     0.09300
H371        H  0.74653722  0.36665242  0.02006708     0.06800
H372        H  0.63886104  0.26884385  0.02082972     0.06600
C373        C  0.53661081  0.07885952  0.14488093     0.80800
N374        N  0.55860581  0.11573018  0.14142038    -0.77500
C375        C  0.59003737  0.13708169  0.15103214     0.83200
N376        N  0.59942827  0.12086081  0.16423571    -0.77500
C377        C  0.57827731  0.08400807  0.16802009     0.83300
N378        N  0.54653349  0.06295734  0.15826863    -0.79200
O379        O  0.61525719  0.94434821  0.26785299    -0.57300
C380        C  0.69462361  0.95955423  0.22650984     0.75400
O381        O  0.66361827  0.04643279  0.23288248    -0.58400
C382        C  0.60593997  0.96486308  0.27632109     0.75300
C383        C  0.72825130  0.03544199  0.27212147     0.77700
Cd384      Cd  0.66424867  0.99508661  0.24915301     1.37500
O385        O  0.71017441  0.99420147  0.22907457    -0.57300
O386        O  0.70710313  0.00055428  0.27277317    -0.56100
C387        C  0.63639040  0.02586923  0.22272801     0.77700
O388        O  0.71903261  0.05261775  0.26104405    -0.58400
O389        O  0.66341678  0.94012738  0.23410868    -0.56900
O390        O  0.62303397  0.99880933  0.27194851    -0.56900
O391        O  0.62233346  0.99118758  0.22485094    -0.56100
C392        C  0.46955310  0.91943742  0.35964110     0.80800
N393        N  0.44880439  0.88231304  0.36258230    -0.77500
C394        C  0.45251482  0.85766350  0.35214279     0.83200
N395        N  0.47789674  0.87057108  0.33860163    -0.77500
C396        C  0.49923298  0.90773300  0.33540886     0.83300
N397        N  0.49447216  0.93200043  0.34586992    -0.79200
C398        C  0.67278569  0.29677721  0.13894510     0.03700
C399        C  0.65293190  0.31559753  0.14048308    -0.12500
C400        C  0.67132704  0.35450469  0.14076736     0.01200
C401        C  0.71012296  0.37486742  0.13957208    -0.11000
C402        C  0.73073228  0.35663677  0.13855268     0.03700
C403        C  0.71174570  0.31757698  0.13804886    -0.10400
H404        H  0.62312024  0.30001626  0.14204690     0.09300
H405        H  0.72435859  0.40493067  0.14018259     0.06800
H406        H  0.72732078  0.30325160  0.13791365     0.06600
C407        C  0.57721997  0.47980290  0.14120931     0.80800
N408        N  0.59487031  0.46039952  0.13819575    -0.77500
C409        C  0.58699606  0.42996508  0.14812283     0.83200
N410        N  0.56085350  0.41888799  0.16118835    -0.77500
C411        C  0.54254073  0.43754586  0.16449214     0.83300
N412        N  0.55102406  0.46831883  0.15443396    -0.79200
O413        O  0.31547399  0.35299284  0.23679001    -0.57300
C414        C  0.40209211  0.41088576  0.27537727     0.75400
O415        O  0.37582671  0.29822178  0.26148802    -0.58400
C416        C  0.30651165  0.32669721  0.22562293     0.75300
C417        C  0.42927347  0.37873588  0.22069313     0.77700
Cd418      Cd  0.37225657  0.35204674  0.24828608     1.37500
O419        O  0.37330035  0.40302502  0.26623110    -0.57300
O420        O  0.41245970  0.39579719  0.22495527    -0.56100
C421        C  0.34746810  0.28729628  0.27134934     0.77700
O422        O  0.42015756  0.34922945  0.22946069    -0.58400
O423        O  0.41753512  0.39229728  0.27160341    -0.56900
O424        O  0.32805103  0.31367040  0.22501787    -0.56900
O425        O  0.33166417  0.30634547  0.27040697    -0.56100
C426        C  0.49493521  0.55247350  0.35774462     0.80800
N427        N  0.47579698  0.57014654  0.36124939    -0.77500
C428        C  0.44531599  0.56300637  0.35164595     0.83200
N429        N  0.43383568  0.53753574  0.33812184    -0.77500
C430        C  0.45221181  0.51918723  0.33422277     0.83300
N431        N  0.48311826  0.52703520  0.34407299    -0.79200
C432        C  0.94865753  0.44216982  0.14620618     0.80800
N433        N  0.91170638  0.42570727  0.14273582    -0.77500
C434        C  0.89028778  0.43684228  0.15127599     0.83200
N435        N  0.90640965  0.46459258  0.16358622    -0.77500
C436        C  0.94318929  0.48129701  0.16755456     0.83300
N437        N  0.96442729  0.46991857  0.15874568    -0.79200
O438        O  0.97492994  0.59884943  0.23437673    -0.57300
C439        C  0.98707300  0.68067840  0.27200342     0.75400
O440        O  0.07426055  0.65023239  0.26969874    -0.58400
C441        C  0.99630396  0.59252132  0.22481484     0.75300
C442        C  0.06219354  0.71314687  0.22587722     0.77700
Cd443      Cd  0.02528110  0.65171369  0.25100816     1.37500
O444        O  0.02195505  0.69526559  0.27208734    -0.57300
O445        O  0.02752967  0.69136461  0.22625371    -0.56100
C446        C  0.05223027  0.62089647  0.27825675     0.77700
O447        O  0.08091921  0.70638877  0.23723928    -0.58400
O448        O  0.96926318  0.65133436  0.26263119    -0.56900
O449        O  0.03066813  0.61324615  0.22772475    -0.56900
O450        O  0.01828339  0.60655443  0.27425256    -0.56100
C451        C  0.09199399  0.50717508  0.35416722     0.80800
N452        N  0.12852306  0.52711957  0.35864838    -0.77500
C453        C  0.15120812  0.56043579  0.35076940     0.83200
N454        N  0.13678143  0.57313475  0.33814846    -0.77500
C455        C  0.10045843  0.55368038  0.33328274     0.83300
N456        N  0.07788547  0.52053990  0.34153473    -0.79200
C457        C  0.30828320  0.64224282  0.36851768     0.03700
C458        C  0.32878866  0.68132990  0.36978043    -0.12500
C459        C  0.36754376  0.70050024  0.36840099     0.01200
C460        C  0.38601295  0.68048248  0.36652625    -0.11000
C461        C  0.36606652  0.64166476  0.36529679     0.03700
C462        C  0.32729193  0.62267980  0.36637823    -0.10400
H463        H  0.31449647  0.69695145  0.37043262     0.09300
H464        H  0.41582450  0.69529363  0.36482721     0.06800
H465        H  0.31191361  0.59280671  0.36456358     0.06600
C466        C  0.22199026  0.40267676  0.96925086     0.80800
N467        N  0.24207230  0.43993542  0.96630034    -0.77500
C468        C  0.23866098  0.46386351  0.97744768     0.83200
N469        N  0.21491274  0.45056593  0.99153196    -0.77500
C470        C  0.19419271  0.41348186  0.99461893     0.83300
N471        N  0.19832354  0.38964365  0.98355335    -0.79200
O472        O  0.97558554  0.27186551  0.07014041    -0.57300
C473        C  0.06273323  0.29678141  0.10796452     0.75400
O474        O  0.08235703  0.37699929  0.06356134    -0.58400
C475        C  0.96617720  0.29123151  0.06071219     0.75300
C476        C  0.01246620  0.36800401  0.10691407     0.77700
Cd477      Cd  0.03337989  0.32728188  0.08226090     1.37500
O478        O  0.03518235  0.27554042  0.09808535    -0.57300
O479        O  0.99644939  0.33290712  0.10645288    -0.56100
C480        C  0.09022546  0.35600008  0.05456982     0.77700
O481        O  0.03929565  0.38499586  0.09605227    -0.58400
O482        O  0.07609220  0.33129978  0.10568964    -0.56900
O483        O  0.98809025  0.32596941  0.06118329    -0.56900
O484        O  0.07224032  0.32189611  0.05862315    -0.56100
C485        C  0.17101580  0.25159738  0.18367958     0.80800
N486        N  0.15773535  0.26640353  0.17142082    -0.77500
C487        C  0.12427316  0.24438224  0.16329641     0.83200
N488        N  0.10430565  0.20786559  0.16778959    -0.77500
C489        C  0.11701469  0.19285298  0.18008987     0.83300
N490        N  0.15062049  0.21496415  0.18787826    -0.79200
C491        C  0.60274264  0.81138840  0.97253735     0.80800
N492        N  0.56627498  0.78877920  0.96851103    -0.77500
C493        C  0.54543740  0.75604390  0.97716028     0.83200
N494        N  0.56161588  0.74616433  0.99016079    -0.77500
C495        C  0.59795885  0.76807971  0.99463222     0.83300
N496        N  0.61867181  0.80103332  0.98574744    -0.79200
O497        O  0.62879212  0.68437874  0.06257727    -0.57300
C498        C  0.63403751  0.61303045  0.09784349     0.75400
O499        O  0.73313716  0.67295745  0.07820478    -0.58400
C500        C  0.64991201  0.71377306  0.05385618     0.75300
C501        C  0.70862447  0.74140601  0.10748421     0.77700
Cd502      Cd  0.68003537  0.68403915  0.07994598     1.37500
O503        O  0.65158660  0.64350733  0.10622127    -0.57300
O504        O  0.67427320  0.71879184  0.10575027    -0.56100
C505        C  0.73221389  0.66894830  0.06122132     0.77700
O506        O  0.72963331  0.73737443  0.09654407    -0.58400
O507        O  0.63566575  0.61514379  0.08078561    -0.56900
O508        O  0.68398485  0.72925060  0.05769072    -0.56900
O509        O  0.70853421  0.67370660  0.05286729    -0.56100
C510        C  0.76699438  0.89716119  0.18346440     0.80800
N511        N  0.75121774  0.87158661  0.16996205    -0.77500
C512        C  0.77209530  0.86075219  0.16036632     0.83200
N513        N  0.80863804  0.87520431  0.16462378    -0.77500
C514        C  0.82444847  0.90019357  0.17831082     0.83300
N515        N  0.80330815  0.91085614  0.18743093    -0.79200
C516        C  0.12746957  0.84876320  0.18417814     0.80800
N517        N  0.11081617  0.86844479  0.18855885    -0.77500
C518        C  0.12108905  0.90157786  0.18074849     0.83200
N519        N  0.14807808  0.91472945  0.16803677    -0.77500
C520        C  0.16528060  0.89564844  0.16329271     0.83300
N521        N  0.15472501  0.86229584  0.17145278    -0.79200
O522        O  0.28670385  0.98378171  0.09868386    -0.57300
C523        C  0.35211579  0.05352512  0.06147882     0.75400
O524        O  0.40462317  0.01026110  0.08250477    -0.58400
C525        C  0.27533729  0.95195152  0.10557610     0.75300
C526        C  0.31075237  0.92699090  0.05204196     0.77700
Cd527      Cd  0.33604907  0.98445485  0.07956970     1.37500
O528        O  0.35097506  0.05046862  0.07850276    -0.57300
O529        O  0.29289332  0.94267926  0.05674756    -0.56100
C530        C  0.40493042  0.00704201  0.09948234     0.77700
O531        O  0.34126101  0.93773733  0.06022733    -0.58400
O532        O  0.34340813  0.02414167  0.05279297    -0.56900
O533        O  0.29137041  0.93489325  0.10011942    -0.56900
O534        O  0.37348865  0.99094993  0.10690587    -0.56100
C535        C  0.20400708  0.77582395  0.97422698     0.80800
N536        N  0.22275930  0.75777787  0.97075039    -0.77500
C537        C  0.25528208  0.76765383  0.97920439     0.83200
N538        N  0.26843094  0.79546581  0.99161413    -0.77500
C539        C  0.24991928  0.81365270  0.99555033     0.83300
N540        N  0.21749800  0.80366227  0.98670688    -0.79200
C541        C  0.38619079  0.67897292  0.96652967     0.03700
C542        C  0.36403133  0.64010009  0.96625914    -0.12500
C543        C  0.32534145  0.62273557  0.96758533     0.01200
C544        C  0.30876539  0.64470661  0.96907642    -0.11000
C545        C  0.33056639  0.68367332  0.96948011     0.03700
C546        C  0.36924016  0.70061310  0.96803812    -0.10400
H547        H  0.37703172  0.62326327  0.96552892     0.09300
H548        H  0.27904485  0.63151802  0.97078952     0.06800
H549        H  0.38620171  0.73060244  0.96864576     0.06600
C550        C  0.98096243  0.97518304  0.19707464     0.03700
C551        C  0.00228163  0.95780328  0.19608162    -0.12500
C552        C  0.04100501  0.97895537  0.19496983     0.01200
C553        C  0.05867326  0.01780065  0.19566753    -0.11000
C554        C  0.03790954  0.03566078  0.19700680     0.03700
C555        C  0.99905648  0.01414765  0.19778320    -0.10400
H556        H  0.98861553  0.92782145  0.19500376     0.09300
H557        H  0.08848772  0.03411719  0.19415036     0.06800
H558        H  0.98290391  0.02789124  0.19756990     0.06600
C559        C  0.30399531  0.75239594  0.98777687    -0.11700
C560        C  0.27529979  0.74698680  0.97589641     0.05300
C561        C  0.26594453  0.72120231  0.96155010    -0.07000
C562        C  0.28449303  0.70123983  0.95969945    -0.07700
C563        C  0.31263747  0.70638755  0.97173956    -0.02300
C564        C  0.32252273  0.73244006  0.98586453     0.04500
N565        N  0.34984890  0.73749975  0.99899514     0.67000
H566        H  0.31170347  0.77164980  0.99899956     0.15900
H567        H  0.27688781  0.68153928  0.94866844     0.15600
N568        N  0.23810965  0.71513518  0.94853962     0.74700
O569        O  0.38175440  0.76591136  0.99817680    -0.38700
O570        O  0.33978111  0.71880152  0.01337984    -0.38700
O571        O  0.24761289  0.73185161  0.93359843    -0.39400
O572        O  0.20577158  0.68776143  0.95033959    -0.39400
C573        C  0.30157295  0.85675938  0.01614355    -0.11700
C574        C  0.26502929  0.84309144  0.00987032     0.05300
C575        C  0.24388992  0.85713363  0.01789810    -0.07000
C576        C  0.25947006  0.88415005  0.03151413    -0.07700
C577        C  0.29594099  0.89779091  0.03772322    -0.02300
C578        C  0.31700302  0.88354917  0.02989592     0.04500
N579        N  0.35422543  0.89613946  0.03553529     0.67000
H580        H  0.31863928  0.84662608  0.01035170     0.15900
H581        H  0.24247306  0.89428647  0.03739404     0.15600
N582        N  0.20617239  0.84363581  0.01288775     0.74700
O583        O  0.36030892  0.87829671  0.04750822    -0.38700
O584        O  0.38075516  0.91960893  0.02604700    -0.38700
O585        O  0.18061044  0.81926237  0.02251009    -0.39400
O586        O  0.19865092  0.86153821  0.00156968    -0.39400
C587        C  0.10309765  0.94849789  0.17277578    -0.11700
C588        C  0.10145818  0.92209164  0.18511683     0.05300
C589        C  0.08000887  0.91510744  0.20096861    -0.07000
C590        C  0.06078385  0.93408813  0.20395901    -0.07700
C591        C  0.06256939  0.96030083  0.19157115    -0.02300
C592        C  0.08394645  0.96746476  0.17582210     0.04500
N593        N  0.08483562  0.99239662  0.16231164     0.67000
H594        H  0.11852052  0.95382192  0.16030157     0.15900
H595        H  0.04441964  0.92843846  0.21615031     0.15600
N596        N  0.07790366  0.88944945  0.21436873     0.74700
O597        O  0.11303952  0.02437889  0.16100093    -0.38700
O598        O  0.06164785  0.97989389  0.14952385    -0.38700
O599        O  0.09994733  0.90121925  0.22762804    -0.39400
O600        O  0.04965773  0.85736115  0.21498734    -0.39400
C601        C  0.20222782  0.88611713  0.13934723    -0.11700
C602        C  0.19370014  0.91035115  0.14857383     0.05300
C603        C  0.21148891  0.94802464  0.14294004    -0.07000
C604        C  0.23702618  0.96040287  0.12873103    -0.07700
C605        C  0.24594995  0.93636835  0.11972587    -0.02300
C606        C  0.22777051  0.89860397  0.12504721     0.04500
N607        N  0.23392712  0.87218531  0.11574152     0.67000
H608        H  0.18852348  0.85699169  0.14301514     0.15900
H609        H  0.25062742  0.98950191  0.12500448     0.15600
N610        N  0.20496776  0.97467150  0.15176750     0.74700
O611        O  0.25589840  0.86284184  0.12236474    -0.38700
O612        O  0.21201873  0.85284554  0.10326339    -0.38700
O613        O  0.22575134  0.99354528  0.16466794    -0.39400
O614        O  0.18464761  0.98510677  0.14420240    -0.39400
C615        C  0.92752864  0.92986531  0.17862452    -0.11700
C616        C  0.94036865  0.95323567  0.19377046     0.05300
C617        C  0.91470530  0.95749991  0.20425233    -0.07000
C618        C  0.87729463  0.93930208  0.19913671    -0.07700
C619        C  0.86430959  0.91652994  0.18360608    -0.02300
C620        C  0.89015946  0.91152902  0.17348626     0.04500
N621        N  0.87980709  0.88953277  0.15745657     0.67000
H622        H  0.94701786  0.92670999  0.17023305     0.15900
H623        H  0.85836342  0.94340988  0.20747306     0.15600
N624        N  0.92598590  0.97966167  0.22029042     0.74700
O625        O  0.89356935  0.90531052  0.14263253    -0.38700
O626        O  0.86666408  0.85492751  0.15878783    -0.38700
O627        O  0.92622098  0.01006587  0.22051330    -0.39400
O628        O  0.92746021  0.96523404  0.23501876    -0.39400
C629        C  0.75803054  0.80346443  0.11784874    -0.11700
C630        C  0.72368397  0.77168870  0.12115075     0.05300
C631        C  0.70456119  0.77011465  0.13714127    -0.07000
C632        C  0.72008737  0.80008246  0.14933835    -0.07700
C633        C  0.75480122  0.83171419  0.14610918    -0.02300
C634        C  0.77358600  0.83337099  0.12997148     0.04500
N635        N  0.80773720  0.86572087  0.12519258     0.67000
H636        H  0.77272395  0.80556446  0.10545137     0.15900
H637        H  0.70554618  0.79790774  0.16179871     0.15600
N638        N  0.67067661  0.73740397  0.14182419     0.74700
O639        O  0.83448441  0.86203823  0.12007306    -0.38700
O640        O  0.80779523  0.89527988  0.12140407    -0.38700
O641        O  0.67169761  0.71263827  0.15119949    -0.39400
O642        O  0.64038704  0.73686463  0.13994268    -0.39400
C643        C  0.48948888  0.74380265  0.95924995    -0.11700
C644        C  0.50478185  0.73331887  0.97348132     0.05300
C645        C  0.48036458  0.70275369  0.98441007    -0.07000
C646        C  0.44211514  0.68506287  0.98148982    -0.07700
C647        C  0.42705080  0.69658481  0.96776431    -0.02300
C648        C  0.45113548  0.72572109  0.95629372     0.04500
N649        N  0.43716707  0.73657400  0.94128810     0.67000
H650        H  0.50732586  0.76649374  0.95035404     0.15900
H651        H  0.42386771  0.66263048  0.99043364     0.15600
N652        N  0.49340777  0.68988841  0.99898443     0.74700
O653        O  0.43644370  0.76645169  0.94205759    -0.38700
O654        O  0.43340089  0.72096530  0.92620664    -0.38700
O655        O  0.48849204  0.69678205  0.01499124    -0.39400
O656        O  0.50099613  0.66461366  0.99609439    -0.39400
C657        C  0.58720804  0.72981231  0.02227252    -0.11700
C658        C  0.61272539  0.75631806  0.01013391     0.05300
C659        C  0.65083379  0.77007036  0.01325220    -0.07000
C660        C  0.66219083  0.75647028  0.02779474    -0.07700
C661        C  0.63639369  0.72909274  0.03950712    -0.02300
C662        C  0.59844016  0.71621952  0.03673767     0.04500
N663        N  0.57085263  0.68979408  0.04860467     0.67000
H664        H  0.55766393  0.71935534  0.02068371     0.15900
H665        H  0.69164554  0.76690365  0.02962334     0.15600
N666        N  0.67841058  0.79687270  0.00155596     0.74700
O667        O  0.56106383  0.70115749  0.06211683    -0.38700
O668        O  0.55102790  0.65649729  0.04352671    -0.38700
O669        O  0.69843456  0.82983369  0.00705679    -0.39400
O670        O  0.68851477  0.78591996  0.98800531    -0.39400
C671        C  0.10651854  0.13944480  0.19951961    -0.11700
C672        C  0.09485749  0.15272916  0.18491566     0.05300
C673        C  0.06257546  0.12712629  0.17525834    -0.07000
C674        C  0.04391109  0.08952446  0.17993000    -0.07700
C675        C  0.05629071  0.07633124  0.19414813    -0.02300
C676        C  0.08758754  0.10177824  0.20419503     0.04500
N677        N  0.09967645  0.09008608  0.21960336     0.67000
H678        H  0.13056074  0.15836129  0.20748440     0.15900
H679        H  0.02010864  0.07020953  0.17191918     0.15600
N680        N  0.04886572  0.13821505  0.16024341     0.74700
O681        O  0.12836301  0.08738765  0.21852110    -0.38700
O682        O  0.08749130  0.09153164  0.23495100    -0.38700
O683        O  0.05635353  0.13283991  0.14444155    -0.39400
O684        O  0.02282023  0.14479183  0.16262204    -0.39400
C685        C  0.10414952  0.30804017  0.13435941    -0.11700
C686        C  0.07867700  0.28281459  0.12172022     0.05300
C687        C  0.06911520  0.24519712  0.12270133    -0.07000
C688        C  0.08448937  0.23365310  0.13625354    -0.07700
C689        C  0.10966283  0.25877378  0.14903186    -0.02300
C690        C  0.11963265  0.29648578  0.14787827     0.04500
N691        N  0.14432562  0.32325027  0.16066963     0.67000
H692        H  0.11187951  0.33710958  0.13395478     0.15900
H693        H  0.07686433  0.20462350  0.13657826     0.15600
N694        N  0.04463843  0.21845442  0.10982617     0.74700
O695        O  0.17796197  0.34401662  0.15660514    -0.38700
O696        O  0.13126186  0.33128463  0.17412262    -0.38700
O697        O  0.05795225  0.21125394  0.09619324    -0.39400
O698        O  0.01117216  0.19690026  0.11393948    -0.39400
C699        C  0.25192449  0.52091447  0.96083246    -0.11700
C700        C  0.26129735  0.50418844  0.97466866     0.05300
C701        C  0.29157296  0.52637111  0.98605527    -0.07000
C702        C  0.31237886  0.56475904  0.98327798    -0.07700
C703        C  0.30296912  0.58177922  0.96953076    -0.02300
C704        C  0.27218803  0.55952370  0.95831537     0.04500
N705        N  0.26153456  0.57558316  0.94416844     0.67000
H706        H  0.22846633  0.50395610  0.95209054     0.15900
H707        H  0.33561258  0.58152853  0.99218117     0.15600
N708        N  0.30147581  0.51026478  0.00049472     0.74700
O709        O  0.27519533  0.57898291  0.92864764    -0.38700
O710        O  0.23326182  0.57875237  0.94612265    -0.38700
O711        O  0.32887434  0.50557671  0.99875232    -0.39400
O712        O  0.28767202  0.50757240  0.01592678    -0.39400
C713        C  0.15632801  0.36360456  0.01701036    -0.11700
C714        C  0.16807134  0.39932522  0.01020242     0.05300
C715        C  0.15478852  0.42090672  0.01861527    -0.07000
C716        C  0.13021894  0.40643352  0.03315595    -0.07700
C717        C  0.11809378  0.37058434  0.03978216    -0.02300
C718        C  0.13188627  0.34924966  0.03166360     0.04500
N719        N  0.12227253  0.31336822  0.03839510     0.67000
H720        H  0.16654132  0.34667478  0.01107925     0.15900
H721        H  0.11998851  0.42335627  0.03908244     0.15600
N722        N  0.16479431  0.45714708  0.01224609     0.74700
O723        O  0.09713397  0.28470912  0.03063027    -0.38700
O724        O  0.14373031  0.31033318  0.04939429    -0.38700
O725        O  0.14334983  0.46097805  0.00157338    -0.39400
O726        O  0.19049496  0.48536009  0.02004729    -0.39400
C727        C  0.20535943  0.56934246  0.36945121    -0.11700
C728        C  0.19128990  0.58263842  0.35588093     0.05300
C729        C  0.21608071  0.61702874  0.34756177    -0.07000
C730        C  0.25344053  0.63632154  0.35251655    -0.07700
C731        C  0.26748595  0.62265640  0.36573065    -0.02300
C732        C  0.24292330  0.58897765  0.37445276     0.04500
N733        N  0.25544091  0.57483273  0.38871945     0.67000
H734        H  0.18714063  0.54348870  0.37634537     0.15900
H735        H  0.27198467  0.66178918  0.34539592     0.15600
N736        N  0.20440806  0.63272156  0.33369566     0.74700
O737        O  0.25757510  0.58685993  0.40456684    -0.38700
O738        O  0.25664573  0.54549113  0.38626539    -0.38700
O739        O  0.19930214  0.65931421  0.33752472    -0.39400
O740        O  0.20802245  0.62641501  0.31739055    -0.39400
C741        C  0.11214205  0.60435787  0.31161570    -0.11700
C742        C  0.08681458  0.56951830  0.31903540     0.05300
C743        C  0.04989551  0.55146585  0.31253244    -0.07000
C744        C  0.03927240  0.56885610  0.29946512    -0.07700
C745        C  0.06484778  0.60377534  0.29218088    -0.02300
C746        C  0.10183676  0.62123543  0.29831877     0.04500
N747        N  0.12959814  0.65612590  0.29120944     0.67000
H748        H  0.14073759  0.61911429  0.31605544     0.15900
H749        H  0.01076318  0.55446112  0.29476843     0.15600
N750        N  0.02300598  0.51516401  0.31857714     0.74700
O751        O  0.13742604  0.68567449  0.29948448    -0.38700
O752        O  0.15152550  0.65674968  0.27936376    -0.38700
O753        O  0.99774450  0.51126032  0.32918901    -0.39400
O754        O  0.02024091  0.48704511  0.31067110    -0.39400
C755        C  0.11826609  0.76837753  0.21262319    -0.11700
C756        C  0.07945268  0.74530871  0.21317413     0.05300
C757        C  0.05756178  0.75477032  0.20220903    -0.07000
C758        C  0.07431191  0.78768834  0.19222683    -0.07700
C759        C  0.11277658  0.81156308  0.19240629    -0.02300
C760        C  0.13501389  0.80116545  0.20227319     0.04500
N761        N  0.17430435  0.82483016  0.20297029     0.67000
H762        H  0.13575896  0.76163865  0.22074943     0.15900
H763        H  0.05682877  0.79518762  0.18455140     0.15600
N764        N  0.01810558  0.73207609  0.20147389     0.74700
O765        O  0.18858416  0.84984280  0.21488945    -0.38700
O766        O  0.19467755  0.81629610  0.19410779    -0.38700
O767        O  0.99834470  0.74169539  0.21014048    -0.39400
O768        O  0.00330673  0.70712698  0.18954708    -0.39400
C769        C  0.95393777  0.38706593  0.13974073    -0.11700
C770        C  0.96932245  0.42553459  0.13809707     0.05300
C771        C  0.00157478  0.44578510  0.12765178    -0.07000
C772        C  0.01619803  0.42684388  0.11810685    -0.07700
C773        C  0.99949384  0.38785304  0.11899171    -0.02300
C774        C  0.96882349  0.36824635  0.13062608     0.04500
N775        N  0.95187675  0.32905026  0.13321232     0.67000
H776        H  0.92956295  0.37121247  0.14804950     0.15900
H777        H  0.04001164  0.44268226  0.10947924     0.15600
N778        N  0.01838896  0.48510417  0.12567052     0.74700
O779        O  0.96257920  0.31691839  0.14610731    -0.38700
O780        O  0.92156155  0.30755130  0.12541044    -0.38700
O781        O  0.04801364  0.50618856  0.13409301    -0.39400
O782        O  0.00848250  0.49805834  0.11281152    -0.39400
C783        C  0.93281503  0.51266193  0.19367667    -0.11700
C784        C  0.95820266  0.50954396  0.18240406     0.05300
C785        C  0.99644544  0.53327872  0.18581905    -0.07000
C786        C  0.00807942  0.55970029  0.19976323    -0.07700
C787        C  0.98246224  0.56309107  0.21070854    -0.02300
C788        C  0.94434783  0.53874226  0.20762675     0.04500
N789        N  0.91675228  0.53976106  0.21855078     0.67000
H790        H  0.90329044  0.49447143  0.19183355     0.15900
H791        H  0.03758641  0.57791334  0.20191572     0.15600
N792        N  0.02397865  0.53151067  0.17521425     0.74700
O793        O  0.90153261  0.55760807  0.21314435    -0.38700
O794        O  0.90222680  0.51678800  0.23128173    -0.38700
O795        O  0.04085242  0.55573475  0.16322399    -0.39400
O796        O  0.03725901  0.51187262  0.18060209    -0.39400
C797        C  0.39798234  0.58035466  0.34332352    -0.11700
C798        C  0.42514948  0.58330073  0.35556872     0.05300
C799        C  0.43269997  0.60617510  0.37105312    -0.07000
C800        C  0.41316083  0.62485164  0.37388690    -0.07700
C801        C  0.38593353  0.62136119  0.36171249    -0.02300
C802        C  0.37860096  0.59916792  0.34618782     0.04500
N803        N  0.35297087  0.59703884  0.33274396     0.67000
H804        H  0.39211260  0.56388637  0.33109456     0.15900
H805        H  0.41908181  0.64203515  0.38587369     0.15600
N806        N  0.45955787  0.61045260  0.38426597     0.74700
O807        O  0.36398024  0.62132609  0.32049584    -0.38700
O808        O  0.32215701  0.56748466  0.33098623    -0.38700
O809        O  0.49088152  0.63974908  0.38439796    -0.39400
O810        O  0.44923763  0.58964270  0.39795472    -0.39400
C811        C  0.39302027  0.45236767  0.29637238    -0.11700
C812        C  0.41607554  0.43945348  0.29001297     0.05300
C813        C  0.45118149  0.45309670  0.29828586    -0.07000
C814        C  0.46223092  0.47879345  0.31254260    -0.07700
C815        C  0.43897921  0.49144867  0.31909417    -0.02300
C816        C  0.40373996  0.47761994  0.31075698     0.04500
N817        N  0.37768291  0.48771687  0.31699938     0.67000
H818        H  0.36575182  0.44202736  0.29043390     0.15900
H819        H  0.48946671  0.48896687  0.31846836     0.15600
N820        N  0.47627114  0.44154170  0.29230708     0.74700
O821        O  0.37180713  0.50960630  0.30768508    -0.38700
O822        O  0.35475929  0.46832511  0.32904381    -0.38700
O823        O  0.50224381  0.46213051  0.28175909    -0.39400
O824        O  0.47722592  0.41536734  0.30038233    -0.39400
C825        C  0.26706669  0.28270106  0.20160311    -0.11700
C826        C  0.27275257  0.31085687  0.21389244     0.05300
C827        C  0.24558850  0.32164966  0.21486902    -0.07000
C828        C  0.21348886  0.30365155  0.20403154    -0.07700
C829        C  0.20747784  0.27447160  0.19246759    -0.02300
C830        C  0.23487940  0.26445158  0.19111116     0.04500
N831        N  0.23035653  0.23561113  0.17909908     0.67000
H832        H  0.28747272  0.27404764  0.20030518     0.15900
H833        H  0.19226911  0.31122501  0.20535949     0.15600
N834        N  0.24904420  0.34932523  0.22736317     0.74700
O835        O  0.24189910  0.24366979  0.16309521    -0.38700
O836        O  0.22193679  0.20415867  0.18535477    -0.38700
O837        O  0.25734452  0.38109063  0.22160825    -0.39400
O838        O  0.23550227  0.33959361  0.24295585    -0.39400
C839        C  0.60340877  0.57749663  0.12572277    -0.11700
C840        C  0.61419283  0.57726709  0.10780878     0.05300
C841        C  0.60945470  0.54377894  0.10061228    -0.07000
C842        C  0.59614583  0.51222575  0.11160502    -0.07700
C843        C  0.58702008  0.51291907  0.12980279    -0.02300
C844        C  0.58995105  0.54589602  0.13672527     0.04500
N845        N  0.58227762  0.54895839  0.15521081     0.67000
H846        H  0.60694990  0.60301014  0.13153788     0.15900
H847        H  0.59381146  0.48711201  0.10592488     0.15600
N848        N  0.62048032  0.54195597  0.08259198     0.74700
O849        O  0.60501850  0.55161311  0.16720811    -0.38700
O850        O  0.55866305  0.55832154  0.15895065    -0.38700
O851        O  0.65179870  0.54527874  0.07984457    -0.39400
O852        O  0.59660662  0.52999621  0.07010242    -0.39400
C853        C  0.50045136  0.38727561  0.18582125    -0.11700
C854        C  0.51327217  0.42320468  0.17882642     0.05300
C855        C  0.49783450  0.44397687  0.18585332    -0.07000
C856        C  0.47054359  0.42878041  0.19927259    -0.07700
C857        C  0.45800391  0.39305603  0.20626604    -0.02300
C858        C  0.47333501  0.37220115  0.19931409     0.04500
N859        N  0.46138016  0.33540820  0.20553602     0.67000
H860        H  0.51132992  0.37026472  0.18072217     0.15900
H861        H  0.45952355  0.44560082  0.20447936     0.15600
N862        N  0.51053373  0.48120366  0.18023941     0.74700
O863        O  0.43506956  0.30804881  0.19753125    -0.38700
O864        O  0.48143733  0.33001769  0.21646071    -0.38700
O865        O  0.49057427  0.48760825  0.16972791    -0.39400
O866        O  0.53550791  0.50753477  0.18937183    -0.39400
C867        C  0.78667720  0.40296101  0.15533722    -0.11700
C868        C  0.77180444  0.37820468  0.14076724     0.05300
C869        C  0.79619727  0.37323350  0.12952049    -0.07000
C870        C  0.83446159  0.39288225  0.13305039    -0.07700
C871        C  0.84943651  0.41747834  0.14779269    -0.02300
C872        C  0.82473291  0.42224812  0.15902736     0.04500
N873        N  0.83722916  0.44508709  0.17479711     0.67000
H874        H  0.76833819  0.40647792  0.16441760     0.15900
H875        H  0.85253368  0.38870531  0.12409636     0.15600
N876        N  0.78281134  0.34905593  0.11421441     0.74700
O877        O  0.83982804  0.47659761  0.17449612    -0.38700
O878        O  0.83711969  0.43061408  0.18978183    -0.38700
O879        O  0.78180472  0.36223017  0.09902530    -0.39400
O880        O  0.78124960  0.31803612  0.11493387    -0.39400
C881        C  0.60782644  0.38700785  0.15950754    -0.11700
C882        C  0.60796621  0.41001998  0.14556159     0.05300
C883        C  0.62912311  0.41421939  0.12989608    -0.07000
C884        C  0.65010950  0.39654232  0.12877920    -0.07700
C885        C  0.64991670  0.37383982  0.14277831    -0.02300
C886        C  0.62838719  0.36900070  0.15823552     0.04500
N887        N  0.62823447  0.34701581  0.17308064     0.67000
H888        H  0.59218349  0.38339085  0.17174636     0.15900
H889        H  0.66600131  0.39983778  0.11666079     0.15600
N890        N  0.62833745  0.43479384  0.11463730     0.74700
O891        O  0.65134506  0.36236587  0.18573914    -0.38700
O892        O  0.60055349  0.31503609  0.17544766    -0.38700
O893        O  0.65593838  0.46638196  0.11139595    -0.39400
O894        O  0.60404056  0.41841442  0.10255804    -0.39400
C895        C  0.41735397  0.80549060  0.37376489    -0.11700
C896        C  0.42940968  0.81721152  0.35597130     0.05300
C897        C  0.41937407  0.78992652  0.34237493    -0.07000
C898        C  0.39954781  0.75223947  0.34695138    -0.07700
C899        C  0.38807718  0.74078909  0.36469865    -0.02300
C900        C  0.39650012  0.76767547  0.37817521     0.04500
N901        N  0.38482769  0.75704768  0.39639102     0.67000
H902        H  0.42470822  0.82586424  0.38448448     0.15900
H903        H  0.39210220  0.73149224  0.33640077     0.15600
N904        N  0.42690412  0.79974275  0.32374155     0.74700
O905        O  0.40645124  0.75455697  0.40749129    -0.38700
O906        O  0.35687518  0.75786703  0.40216668    -0.38700
O907        O  0.44294952  0.78663066  0.31447535    -0.39400
O908        O  0.40994376  0.81359276  0.31576838    -0.39400
C909        C  0.56660567  0.91516028  0.29835376    -0.11700
C910        C  0.57746145  0.95013136  0.29090087     0.05300
C911        C  0.56204334  0.97079012  0.29812584    -0.07000
C912        C  0.53708344  0.95659152  0.31259496    -0.07700
C913        C  0.52661969  0.92180728  0.32026972    -0.02300
C914        C  0.54191259  0.90104478  0.31293599     0.04500
N915        N  0.53443374  0.86649068  0.32064931     0.67000
H916        H  0.57842377  0.89900436  0.29324239     0.15900
H917        H  0.52542793  0.97290423  0.31769306     0.15600
N918        N  0.57054697  0.00583123  0.29066479     0.74700
O919        O  0.54869796  0.86649267  0.33569498    -0.38700
O920        O  0.52140823  0.83789916  0.31079857    -0.38700
O921        O  0.54902013  0.00712612  0.27907329    -0.39400
O922        O  0.59453692  0.03542138  0.29825969    -0.39400
C923        C  0.76742688  0.94759027  0.20149509    -0.11700
C924        C  0.74651449  0.91215963  0.19365915     0.05300
C925        C  0.70780835  0.89227249  0.19659930    -0.07000
C926        C  0.69127556  0.90779125  0.20742606    -0.07700
C927        C  0.71252569  0.94321372  0.21530544    -0.02300
C928        C  0.75114005  0.96304410  0.21217795     0.04500
N929        N  0.77476053  0.99839393  0.22038800     0.67000
H930        H  0.79718253  0.96369030  0.19951558     0.15900
H931        H  0.66158078  0.89204856  0.20961191     0.15600
N932        N  0.68505603  0.85593341  0.18924819     0.74700
O933        O  0.78828039  0.99979869  0.23582711    -0.38700
O934        O  0.78804354  0.02742744  0.21088970    -0.38700
O935        O  0.67598686  0.82787759  0.19904502    -0.39400
O936        O  0.66824992  0.85209819  0.17451002    -0.39400
C937        C  0.50525286  0.06734048  0.11504534    -0.11700
C938        C  0.50330355  0.05692844  0.13324387     0.05300
C939        C  0.46930656  0.02772989  0.13977631    -0.07000
C940        C  0.43806409  0.01098153  0.12836964    -0.07700
C941        C  0.43976308  0.02239592  0.11034493    -0.02300
C942        C  0.47421801  0.05047401  0.10363479     0.04500
N943        N  0.47793342  0.06370697  0.08553820     0.67000
H944        H  0.53112812  0.08943748  0.10961585     0.15900
H945        H  0.41194111  0.98946993  0.13386331     0.15600
N946        N  0.46526573  0.01588369  0.15812553     0.74700
O947        O  0.47441712  0.09151232  0.08229983    -0.38700
O948        O  0.49222816  0.05291376  0.07378764    -0.38700
O949        O  0.45814280  0.03311271  0.16997483    -0.39400
O950        O  0.45892749  0.98351945  0.16149483    -0.39400
C951        C  0.66613526  0.23959756  0.15317393    -0.11700
C952        C  0.65313480  0.25557219  0.14060634     0.05300
C953        C  0.62053802  0.23208420  0.13077102    -0.07000
C954        C  0.60095631  0.19381929  0.13422714    -0.07700
C955        C  0.61328395  0.17775748  0.14721976    -0.02300
C956        C  0.64702059  0.20129345  0.15642761     0.04500
N957        N  0.66258385  0.18716154  0.16915498     0.67000
H958        H  0.69111925  0.25713147  0.16089257     0.15900
H959        H  0.57575298  0.17665407  0.12660330     0.15600
N960        N  0.60750790  0.24637947  0.11680879     0.74700
O961        O  0.68494453  0.17731632  0.16371820    -0.38700
O962        O  0.66119660  0.19294963  0.18577517    -0.38700
O963        O  0.61905578  0.24824111  0.10091467    -0.39400
O964        O  0.57865855  0.24826674  0.11936895    -0.39400
C965        C  0.58744589  0.01718217  0.20060395    -0.11700
C966        C  0.62143164  0.04111381  0.20909770     0.05300
C967        C  0.64033288  0.07899162  0.20427854    -0.07000
C968        C  0.62541227  0.09174948  0.19112343    -0.07700
C969        C  0.59157708  0.06794731  0.18233090    -0.02300
C970        C  0.57237083  0.03005290  0.18744092     0.04500
N971        N  0.53734893  0.00416373  0.17973501     0.67000
H972        H  0.57212128  0.98787269  0.20422644     0.15900
H973        H  0.64122215  0.12121207  0.18772408     0.15600
N974        N  0.67514063  0.10486791  0.21228218     0.74700
O975        O  0.53636938  0.98665267  0.16565445    -0.38700
O976        O  0.50872600  0.99187845  0.18937829    -0.38700
O977        O  0.70476210  0.11319234  0.20410368    -0.39400
O978        O  0.67601442  0.12454912  0.22542669    -0.39400
C979        C  0.92395854  0.69007814  0.86174199    -0.11700
C980        C  0.95253825  0.71611745  0.87293797     0.05300
C981        C  0.96421511  0.75408115  0.87062935    -0.07000
C982        C  0.94826453  0.76503805  0.85706026    -0.07700
C983        C  0.92040864  0.73916816  0.84542443    -0.02300
C984        C  0.90787211  0.70103260  0.84818241     0.04500
N985        N  0.87918301  0.67282532  0.83733623     0.67000
H986        H  0.91408403  0.66062825  0.86333132     0.15900
H987        H  0.95791220  0.79448385  0.85577498     0.15600
N988        N  0.99188720  0.78199567  0.88203532     0.74700
O989        O  0.88732572  0.66467823  0.82229706    -0.38700
O990        O  0.84882520  0.65018123  0.84465288    -0.38700
O991        O  0.02447160  0.80175496  0.87621190    -0.39400
O992        O  0.98212339  0.79209131  0.89601347    -0.39400
C993        C  0.12570114  0.76585467  0.94402113    -0.11700
C994        C  0.09777630  0.72914857  0.94783114     0.05300
C995        C  0.10475897  0.70932264  0.96135523    -0.07000
C996        C  0.13923833  0.72568366  0.97005306    -0.07700
C997        C  0.16718862  0.76180829  0.96587954    -0.02300
C998        C  0.16020065  0.78219848  0.95288495     0.04500
N999        N  0.18866698  0.81844714  0.94763978     0.67000
H1000       H  0.12130586  0.78159319  0.93362708     0.15900
H1001       H  0.14441953  0.70974968  0.98004531     0.15600
N1002       N  0.07755470  0.67225664  0.96624772     0.74700
O1003       O  0.21117132  0.82182846  0.93545084    -0.38700
O1004       O  0.18691908  0.84650332  0.95256167    -0.38700
O1005       O  0.08102320  0.64543062  0.96088053    -0.39400
O1006       O  0.05509883  0.66713462  0.97877629    -0.39400
C1007       C  0.78133493  0.64592115  0.02450167    -0.11700
C1008       C  0.78957220  0.62161124  0.03381773     0.05300
C1009       C  0.78270662  0.61670103  0.05255709    -0.07000
C1010       C  0.76596454  0.63419140  0.06133392    -0.07700
C1011       C  0.75552711  0.65659942  0.05184937    -0.02300
C1012       C  0.76435031  0.66330772  0.03330319     0.04500
N1013       N  0.75621230  0.68758530  0.02321510     0.67000
H1014       H  0.78658469  0.65017547  0.01010721     0.15900
H1015       H  0.75983698  0.62900601  0.07562333     0.15600
N1016       N  0.79270505  0.59415712  0.06294366     0.74700
O1017       O  0.77955378  0.72191647  0.02286842    -0.38700
O1018       O  0.72978727  0.67415155  0.01200803    -0.38700
O1019       O  0.82627926  0.60681090  0.06709090    -0.39400
O1020       O  0.76800715  0.56692517  0.07163050    -0.39400
C1021       C  0.77407335  0.47461895  0.00617798    -0.11700
C1022       C  0.76625836  0.49659353  0.01774782     0.05300
C1023       C  0.73710599  0.47817130  0.03037096    -0.07000
C1024       C  0.71679908  0.43932381  0.03090482    -0.07700
C1025       C  0.72413302  0.41770757  0.01903251    -0.02300
C1026       C  0.75349238  0.43579864  0.00662551     0.04500
N1027       N  0.76191453  0.41537720  0.99387006     0.67000
H1028       H  0.79607072  0.48757253  0.99624127     0.15900
H1029       H  0.69475472  0.42585243  0.04077788     0.15600
N1030       N  0.72730826  0.49793846  0.04280828     0.74700
O1031       O  0.74420702  0.40523277  0.97916513    -0.38700
O1032       O  0.79180302  0.41497628  0.99544346    -0.38700
O1033       O  0.70642412  0.50983491  0.03753805    -0.39400
O1034       O  0.72999701  0.49365368  0.05949798    -0.39400
C1035       C  0.87107967  0.63892370  0.97679258    -0.11700
C1036       C  0.86296557  0.60570606  0.98553581     0.05300
C1037       C  0.88055222  0.58628397  0.97930369    -0.07000
C1038       C  0.90470155  0.59969572  0.96459887    -0.07700
C1039       C  0.91272970  0.63268212  0.95582629    -0.02300
C1040       C  0.89549061  0.65240470  0.96203446     0.04500
N1041       N  0.90101462  0.68513352  0.95301632     0.67000
H1042       H  0.85751112  0.65402600  0.98105985     0.15900
H1043       H  0.91816229  0.58447761  0.96034081     0.15600
N1044       N  0.87552565  0.55357735  0.98814753     0.74700
O1045       O  0.88193139  0.68205836  0.93918782    -0.38700
O1046       O  0.91927871  0.71630835  0.96070215    -0.38700
O1047       O  0.86051264  0.52313914  0.97966723    -0.39400
O1048       O  0.89350095  0.55678774  0.00241616    -0.39400
C1049       C  0.98223238  0.90964385  0.81640212    -0.11700
C1050       C  0.97640108  0.92195652  0.79980477     0.05300
C1051       C  0.95138162  0.89571267  0.78736810    -0.07000
C1052       C  0.93199620  0.85784968  0.79186374    -0.07700
C1053       C  0.93704526  0.84531223  0.80871720    -0.02300
C1054       C  0.96291953  0.87194171  0.82100309     0.04500
N1055       N  0.96897543  0.86170161  0.83853617     0.67000
H1056       H  0.00120795  0.92970850  0.82616423     0.15900
H1057       H  0.91292448  0.83816962  0.78202092     0.15600
N1058       N  0.94590100  0.90704144  0.77000232     0.74700
O1059       O  0.99854511  0.86143285  0.84167124    -0.38700
O1060       O  0.94977635  0.86188115  0.85160047    -0.38700
O1061       O  0.96454334  0.90646672  0.75677345    -0.39400
O1062       O  0.91788393  0.91032389  0.76722703    -0.39400
C1063       C  0.95776619  0.08836444  0.79469448    -0.11700
C1064       C  0.93491144  0.07823499  0.81004259     0.05300
C1065       C  0.92975123  0.04721154  0.82023502    -0.07000
C1066       C  0.94732207  0.02760526  0.81500808    -0.07700
C1067       C  0.97074624  0.03841598  0.79995180    -0.02300
C1068       C  0.97573413  0.06906192  0.78967650     0.04500
N1069       N  0.99856966  0.08069604  0.77396201     0.67000
H1070       H  0.96190942  0.11159363  0.78639067     0.15900
H1071       H  0.94393165  0.00464928  0.82333313     0.15600
N1072       N  0.90845198  0.03621849  0.83644356     0.74700
O1073       O  0.98481259  0.06546899  0.75898718    -0.38700
O1074       O  0.02899813  0.11099291  0.77426308    -0.38700
O1075       O  0.87767817  0.00630196  0.83667385    -0.39400
O1076       O  0.92378586  0.05156646  0.85117492    -0.39400
C1077       C  0.79991248  0.09962102  0.86528943    -0.11700
C1078       C  0.79136145  0.06640595  0.87419930     0.05300
C1079       C  0.81023214  0.04781637  0.86894117    -0.07000
C1080       C  0.83678545  0.06254422  0.85524741    -0.07700
C1081       C  0.84558056  0.09582736  0.84627380    -0.02300
C1082       C  0.82649569  0.11435435  0.85150034     0.04500
N1083       N  0.83325241  0.14788831  0.84291597     0.67000
H1084       H  0.78568912  0.11443303  0.86897647     0.15900
H1085       H  0.85067765  0.04735930  0.85169425     0.15600
N1086       N  0.80264380  0.01367950  0.87717412     0.74700
O1087       O  0.81310715  0.14624295  0.82980567    -0.38700
O1088       O  0.85355123  0.17863766  0.85066505    -0.38700
O1089       O  0.78110151  0.98332787  0.86937895    -0.39400
O1090       O  0.82310200  0.01421319  0.88988135    -0.39400
C1091       C  0.67624641  0.90123067  0.94985202    -0.11700
C1092       C  0.65560526  0.91863875  0.94596592     0.05300
C1093       C  0.61805065  0.90069128  0.95133958    -0.07000
C1094       C  0.60216497  0.86634873  0.96010704    -0.07700
C1095       C  0.62255177  0.84868131  0.96383766    -0.02300
C1096       C  0.66015219  0.86661484  0.95867462     0.04500
N1097       N  0.68182402  0.84926470  0.96127676     0.67000
H1098       H  0.70501832  0.91426075  0.94573390     0.15900
H1099       H  0.57323832  0.85327406  0.96399354     0.15600
N1100       N  0.59505254  0.91617859  0.94750029     0.74700
O1101       O  0.67858039  0.82473229  0.95023739    -0.38700
O1102       O  0.70978766  0.86444808  0.97153323    -0.38700
O1103       O  0.57362761  0.90460607  0.93400036    -0.39400
O1104       O  0.59035029  0.93493541  0.95946840    -0.39400
C1105       C  0.87597278  0.22394782  0.03609638    -0.11700
C1106       C  0.86485117  0.24853036  0.02962414     0.05300
C1107       C  0.88780580  0.28692627  0.03299688    -0.07000
C1108       C  0.92052087  0.29976996  0.04294876    -0.07700
C1109       C  0.93135431  0.27526659  0.04988318    -0.02300
C1110       C  0.90862860  0.23684851  0.04631887     0.04500
N1111       N  0.91785825  0.21046993  0.05315519     0.67000
H1112       H  0.85854171  0.19432995  0.03374690     0.15900
H1113       H  0.93751764  0.32943030  0.04531475     0.15600
N1114       N  0.87898400  0.31352255  0.02596664     0.74700
O1115       O  0.90479149  0.19492776  0.06810677    -0.38700
O1116       O  0.93228750  0.19729757  0.04279048    -0.38700
O1117       O  0.87169899  0.33241428  0.03672879    -0.39400
O1118       O  0.88695271  0.32407300  0.00980986    -0.39400
C1119       C  0.72616365  0.24991477  0.00474914    -0.11700
C1120       C  0.75084330  0.25345136  0.01859934     0.05300
C1121       C  0.75468047  0.27571973  0.03378537    -0.07000
C1122       C  0.73587482  0.29559576  0.03415932    -0.07700
C1123       C  0.71207560  0.29252694  0.02005514    -0.02300
C1124       C  0.70656160  0.26878275  0.00543538     0.04500
N1125       N  0.68260178  0.26504162  0.99076319     0.67000
H1126       H  0.72285378  0.23325272  0.99280019     0.15900
H1127       H  0.73938116  0.31319262  0.04573363     0.15600
N1128       N  0.77594177  0.27708515  0.04923985     0.74700
O1129       O  0.69549641  0.28668616  0.97743799    -0.38700
O1130       O  0.65121533  0.23601530  0.98946640    -0.38700
O1131       O  0.80152383  0.30806472  0.05492001    -0.39400
O1132       O  0.76370250  0.24908062  0.05941903    -0.39400
C1133       C  0.79345966  0.15043744  0.97944000    -0.11700
C1134       C  0.76895875  0.16116339  0.98640768     0.05300
C1135       C  0.73268117  0.14456204  0.97892646    -0.07000
C1136       C  0.72235450  0.11903814  0.96477067    -0.07700
C1137       C  0.74681310  0.10856572  0.95777257    -0.02300
C1138       C  0.78280590  0.12451158  0.96529594     0.04500
N1139       N  0.80943184  0.11593948  0.95828361     0.67000
H1140       H  0.82151300  0.16286395  0.98468158     0.15900
H1141       H  0.69437659  0.10673558  0.95942054     0.15600
N1142       N  0.70542368  0.15262475  0.98558394     0.74700
O1143       O  0.83019289  0.13508882  0.94551380    -0.38700
O1144       O  0.81714431  0.09471289  0.96703779    -0.38700
O1145       O  0.69470542  0.17007085  0.97567863    -0.39400
O1146       O  0.68624110  0.13506326  0.99908127    -0.39400
C1147       C  0.11620922  0.03906014  0.78777304    -0.11700
C1148       C  0.09304289  0.04446379  0.79946801     0.05300
C1149       C  0.10908873  0.06906378  0.81419749    -0.07000
C1150       C  0.14709171  0.08620225  0.81720752    -0.07700
C1151       C  0.17045062  0.07977896  0.80615943    -0.02300
C1152       C  0.15455888  0.05658423  0.79079640     0.04500
N1153       N  0.17676795  0.05078906  0.77807129     0.67000
H1154       H  0.10416881  0.02050874  0.77607103     0.15900
H1155       H  0.15857277  0.10457863  0.82943113     0.15600
N1156       N  0.08677352  0.07466440  0.82694027     0.74700
O1157       O  0.17873167  0.02159035  0.77898580    -0.38700
O1158       O  0.18693913  0.06993410  0.76382100    -0.38700
O1159       O  0.07585572  0.05473476  0.84092310    -0.39400
O1160       O  0.08599518  0.10454446  0.82653342    -0.39400
C1161       C  0.31072094  0.18673570  0.84906392    -0.11700
C1162       C  0.27268844  0.16095761  0.84721204     0.05300
C1163       C  0.24798872  0.16282271  0.85967830    -0.07000
C1164       C  0.26116909  0.19120193  0.87263081    -0.07700
C1165       C  0.29891273  0.21777609  0.87409615    -0.02300
C1166       C  0.32399382  0.21473117  0.86236269     0.04500
N1167       N  0.36294464  0.24023783  0.86341501     0.67000
H1168       H  0.33033812  0.18583893  0.83984088     0.15900
H1169       H  0.24146399  0.19209037  0.88179786     0.15600
N1170       N  0.20943485  0.13550568  0.85986108     0.74700
O1171       O  0.38322596  0.23150094  0.87232001    -0.38700
O1172       O  0.37769010  0.26717405  0.85256155    -0.38700
O1173       O  0.19918118  0.10425566  0.86693664    -0.39400
O1174       O  0.18584456  0.14542353  0.85712022    -0.39400
C1175       C  0.25122897  0.36271400  0.93061366    -0.11700
C1176       C  0.25516531  0.33517748  0.93955773     0.05300
C1177       C  0.24294676  0.32660829  0.95762519    -0.07000
C1178       C  0.22978964  0.34728148  0.96666203    -0.07700
C1179       C  0.22911615  0.37709905  0.95818909    -0.02300
C1180       C  0.23877863  0.38385109  0.93973738     0.04500
N1181       N  0.23690510  0.41258633  0.93010768     0.67000
H1182       H  0.26019296  0.36967456  0.91671954     0.15900
H1183       H  0.22203474  0.34123103  0.98074494     0.15600
N1184       N  0.24460235  0.29768297  0.96717845     0.74700
O1185       O  0.26603506  0.44361136  0.92799704    -0.38700
O1186       O  0.20904631  0.40425629  0.92028007    -0.38700
O1187       O  0.26965356  0.30601164  0.97886110    -0.39400
O1188       O  0.21690297  0.26521308  0.96688381    -0.39400
C1189       C  0.37359944  0.12795733  0.02569878    -0.11700
C1190       C  0.39931059  0.16025742  0.03492026     0.05300
C1191       C  0.40690796  0.15732087  0.05326799    -0.07000
C1192       C  0.38954776  0.12260189  0.06181988    -0.07700
C1193       C  0.36530246  0.08997175  0.05237964    -0.02300
C1194       C  0.35708666  0.09299048  0.03411597     0.04500
N1195       N  0.33255295  0.06084970  0.02379828     0.67000
H1196       H  0.36758899  0.12956557  0.01156531     0.15900
H1197       H  0.39648712  0.12105905  0.07580871     0.15600
N1198       N  0.43251038  0.18928830  0.06341896     0.74700
O1199       O  0.29873473  0.05120000  0.02268951    -0.38700
O1200       O  0.34578957  0.04735563  0.01288876    -0.38700
O1201       O  0.42046311  0.20577429  0.07310274    -0.39400
O1202       O  0.46504734  0.19553600  0.06594809    -0.39400
C1203       C  0.53661519  0.25574443  0.03163279    -0.11700
C1204       C  0.51977961  0.26902829  0.01962800     0.05300
C1205       C  0.54296621  0.30105604  0.00925882    -0.07000
C1206       C  0.58145552  0.31739411  0.01037828    -0.07700
C1207       C  0.59812775  0.30349003  0.02201235    -0.02300
C1208       C  0.57520219  0.27275904  0.03306812     0.04500
N1209       N  0.59049261  0.25912841  0.04624544     0.67000
H1210       H  0.51980085  0.23176020  0.04004631     0.15900
H1211       H  0.59844451  0.34091997  0.00172073     0.15600
N1212       N  0.52828296  0.31757891  0.99742442     0.74700
O1213       O  0.60003424  0.27487323  0.06145158    -0.38700
O1214       O  0.58637246  0.22716020  0.04432328    -0.38700
O1215       O  0.52574629  0.34486577  0.00293321    -0.39400
O1216       O  0.52652191  0.31107127  0.98070624    -0.39400
C1217       C  0.35913540  0.23931220  0.96606311    -0.11700
C1218       C  0.38136826  0.27469832  0.95838810     0.05300
C1219       C  0.41713537  0.29778419  0.96560665    -0.07000
C1220       C  0.42985565  0.28514504  0.97990498    -0.07700
C1221       C  0.40805325  0.24944073  0.98738592    -0.02300
C1222       C  0.37197756  0.22656187  0.98034369     0.04500
N1223       N  0.34810200  0.19008604  0.98721888     0.67000
H1224       H  0.33141289  0.22102486  0.96086565     0.15900
H1225       H  0.45740957  0.30383070  0.98513473     0.15600
N1226       N  0.44103949  0.33424804  0.95869599     0.74700
O1227       O  0.32476322  0.18530680  0.99922153    -0.38700
O1228       O  0.34514118  0.16233089  0.97885980    -0.38700
O1229       O  0.44398242  0.36202438  0.96702854    -0.39400
O1230       O  0.46460473  0.33900139  0.94682447    -0.39400
C1231       C  0.60333319  0.39331931  0.62371944    -0.11700
C1232       C  0.60661470  0.41045558  0.64057701     0.05300
C1233       C  0.62798947  0.40617976  0.65425762    -0.07000
C1234       C  0.64629074  0.38655555  0.65065630    -0.07700
C1235       C  0.64289951  0.36963400  0.63391503    -0.02300
C1236       C  0.62088884  0.37271111  0.62037379     0.04500
N1237       N  0.61659340  0.35561830  0.60312647     0.67000
H1238       H  0.58709718  0.39597781  0.61297152     0.15900
H1239       H  0.66246095  0.38342801  0.66130935     0.15600
N1240       N  0.62962549  0.41933974  0.67223864     0.74700
O1241       O  0.58970907  0.32325243  0.60042911    -0.38700
O1242       O  0.63467363  0.37524332  0.58983023    -0.38700
O1243       O  0.60241627  0.40114385  0.68258576    -0.39400
O1244       O  0.66068838  0.44217661  0.67900151    -0.39400
C1245       C  0.63995605  0.54723540  0.69658490    -0.11700
C1246       C  0.61361631  0.55252673  0.70572695     0.05300
C1247       C  0.57679628  0.53430669  0.69902090    -0.07000
C1248       C  0.56710521  0.51083007  0.68386826    -0.07700
C1249       C  0.59349834  0.50540690  0.67479418    -0.02300
C1250       C  0.63063886  0.52492566  0.68104668     0.04500
N1251       N  0.65985626  0.52499627  0.67099126     0.67000
H1252       H  0.66866998  0.56220546  0.70096818     0.15900
H1253       H  0.53846409  0.49627947  0.67935687     0.15600
N1254       N  0.54863502  0.53867905  0.70757700     0.74700
O1255       O  0.66707083  0.53891226  0.65536533    -0.38700
O1256       O  0.68330437  0.51941984  0.67901701    -0.38700
O1257       O  0.53788922  0.55904539  0.70032012    -0.39400
O1258       O  0.52927981  0.51630891  0.71982854    -0.39400
C1259       C  0.76428389  0.67209085  0.79366916    -0.11700
C1260       C  0.76308399  0.68194299  0.77565671     0.05300
C1261       C  0.79578490  0.71093328  0.76793587    -0.07000
C1262       C  0.82796935  0.73045222  0.77851143    -0.07700
C1263       C  0.82891812  0.72137857  0.79674050    -0.02300
C1264       C  0.79668174  0.69112509  0.80416321     0.04500
N1265       N  0.79538953  0.68060484  0.82260710     0.67000
H1266       H  0.73941315  0.65000282  0.79987706     0.15900
H1267       H  0.85241857  0.75329054  0.77239327     0.15600
N1268       N  0.79630723  0.72244857  0.74971427     0.74700
O1269       O  0.79156179  0.69958888  0.83476792    -0.38700
O1270       O  0.78859893  0.64818104  0.82622602    -0.38700
O1271       O  0.79598066  0.75206886  0.74666901    -0.39400
O1272       O  0.80561533  0.70817523  0.73726777    -0.39400
C1273       C  0.41705902  0.48016554  0.88222204    -0.11700
C1274       C  0.43206453  0.48098066  0.86513237     0.05300
C1275       C  0.43064539  0.44828623  0.85880900    -0.07000
C1276       C  0.41405789  0.41591049  0.86938255    -0.07700
C1277       C  0.39851754  0.41501136  0.88632224    -0.02300
C1278       C  0.40039528  0.44785465  0.89274344     0.04500
N1279       N  0.38385411  0.44855294  0.90947922     0.67000
H1280       H  0.41763513  0.50477576  0.88745545     0.15900
H1281       H  0.41266637  0.39097614  0.86406415     0.15600
N1282       N  0.44393769  0.44668333  0.84129330     0.74700
O1283       O  0.40396296  0.46156764  0.92335796    -0.38700
O1284       O  0.35160549  0.44397390  0.90948607    -0.38700
O1285       O  0.47456416  0.44782824  0.83979430    -0.39400
O1286       O  0.42213838  0.43679329  0.82794571    -0.39400
C1287       C  0.40148452  0.58318209  0.86468315    -0.11700
C1288       C  0.42970269  0.59509877  0.85165567     0.05300
C1289       C  0.44026692  0.62872177  0.84236938    -0.07000
C1290       C  0.42079395  0.64754143  0.84522639    -0.07700
C1291       C  0.39164941  0.63458860  0.85768058    -0.02300
C1292       C  0.38286867  0.60263319  0.86789331     0.04500
N1293       N  0.35565681  0.58990854  0.88186121     0.67000
H1294       H  0.39332574  0.55822536  0.87249650     0.15900
H1295       H  0.42826814  0.67230553  0.83736231     0.15600
N1296       N  0.47090443  0.64467979  0.83021319     0.74700
O1297       O  0.32559924  0.55962648  0.87986042    -0.38700
O1298       O  0.36501154  0.60402288  0.89741674    -0.38700
O1299       O  0.46543307  0.64898279  0.81385577    -0.39400
O1300       O  0.50335972  0.66267520  0.83655723    -0.39400
C1301       C  0.54541366  0.56830577  0.81984978    -0.11700
C1302       C  0.51087756  0.56461721  0.81595096     0.05300
C1303       C  0.50414634  0.57336489  0.79850344    -0.07000
C1304       C  0.53268907  0.58823121  0.78566934    -0.07700
C1305       C  0.56777285  0.59301515  0.78965327    -0.02300
C1306       C  0.57368888  0.58206866  0.80686793     0.04500
N1307       N  0.60881581  0.58650464  0.81173871     0.67000
H1308       H  0.55090689  0.56165948  0.83323338     0.15900
H1309       H  0.52705916  0.59503081  0.77235389     0.15600
N1310       N  0.46772555  0.56504292  0.79337622     0.74700
O1311       O  0.63283108  0.61624848  0.81921035    -0.38700
O1312       O  0.61286451  0.55847536  0.81200861    -0.38700
O1313       O  0.46103537  0.59091188  0.79045408    -0.39400
O1314       O  0.44188902  0.53165433  0.79225280    -0.39400
C1315       C  0.59564062  0.19317745  0.65251574    -0.11700
C1316       C  0.60365292  0.17049576  0.64158705     0.05300
C1317       C  0.63097260  0.18772575  0.62801311    -0.07000
C1318       C  0.64880309  0.22632214  0.62557788    -0.07700
C1319       C  0.64064667  0.24867478  0.63655778    -0.02300
C1320       C  0.61404827  0.23173900  0.65030391     0.04500
N1321       N  0.60722134  0.25348053  0.66295289     0.67000
H1322       H  0.57558930  0.18115646  0.66334518     0.15900
H1323       H  0.66946728  0.23901509  0.61503461     0.15600
N1324       N  0.64136029  0.16679757  0.61665429     0.74700
O1325       O  0.57729212  0.25393542  0.66203974    -0.38700
O1326       O  0.62670938  0.26501540  0.67710341    -0.38700
O1327       O  0.62871702  0.15893868  0.60077260    -0.39400
O1328       O  0.66877488  0.16345963  0.62100125    -0.39400
C1329       C  0.45731428  0.01546593  0.69262769    -0.11700
C1330       C  0.45577856  0.04176357  0.70394762     0.05300
C1331       C  0.48178785  0.07973205  0.70127527    -0.07000
C1332       C  0.50786023  0.09048223  0.68742245    -0.07700
C1333       C  0.50929746  0.06427272  0.67595708    -0.02300
C1334       C  0.48366366  0.02622231  0.67883855     0.04500
N1335       N  0.48339645  0.99802727  0.66779494     0.67000
H1336       H  0.43773802  0.98605276  0.69440430     0.15900
H1337       H  0.52750184  0.11993054  0.68583999     0.15600
N1338       N  0.48267925  0.10787908  0.71262973     0.74700
O1339       O  0.49965537  0.98126897  0.67331991    -0.38700
O1340       O  0.46014697  0.98413515  0.65508451    -0.38700
O1341       O  0.50605400  0.12112977  0.72531920    -0.39400
O1342       O  0.46614483  0.12473158  0.70767289    -0.39400
C1343       C  0.30089300  0.03513472  0.79227561    -0.11700
C1344       C  0.32821291  0.05763485  0.77969927     0.05300
C1345       C  0.33751784  0.09524257  0.77799701    -0.07000
C1346       C  0.31909289  0.10904267  0.78853304    -0.07700
C1347       C  0.29087673  0.08584147  0.80048597    -0.02300
C1348       C  0.28200070  0.04866353  0.80237298     0.04500
N1349       N  0.25316957  0.02396891  0.81424184     0.67000
H1350       H  0.29311518  0.00622133  0.79396480     0.15900
H1351       H  0.32563477  0.13757807  0.78672413     0.15600
N1352       N  0.36390912  0.11919556  0.76498065     0.74700
O1353       O  0.22100318  0.00314012  0.80802146    -0.38700
O1354       O  0.26147275  0.01731092  0.82963546    -0.38700
O1355       O  0.35288418  0.12200356  0.74949295    -0.39400
O1356       O  0.39626473  0.14281640  0.77003151    -0.39400
C1357       C  0.55142501  0.98264616  0.86797298    -0.11700
C1358       C  0.54199378  0.94958036  0.85876692     0.05300
C1359       C  0.56680183  0.93604517  0.85917158    -0.07000
C1360       C  0.59942295  0.95449182  0.86928671    -0.07700
C1361       C  0.60825371  0.98648195  0.87938806    -0.02300
C1362       C  0.58415742  0.00108291  0.87834080     0.04500
N1363       N  0.59197902  0.03401898  0.88790957     0.67000
H1364       H  0.53258774  0.99341499  0.86770326     0.15900
H1365       H  0.61751680  0.94285406  0.86954079     0.15600
N1366       N  0.55946255  0.90365598  0.84920247     0.74700
O1367       O  0.60960253  0.06507121  0.88011654    -0.38700
O1368       O  0.57465050  0.03136973  0.90226103    -0.38700
O1369       O  0.57301429  0.90737989  0.83363161    -0.39400
O1370       O  0.54766199  0.87319982  0.85737581    -0.39400
C1371       C  0.41218088  0.77379806  0.86839248    -0.11700
C1372       C  0.38543633  0.75115737  0.85560471     0.05300
C1373       C  0.37885013  0.76785816  0.84059338    -0.07000
C1374       C  0.39926956  0.80643123  0.83850667    -0.07700
C1375       C  0.42680040  0.82929966  0.85103532    -0.02300
C1376       C  0.43261406  0.81252049  0.86636247     0.04500
N1377       N  0.45832293  0.83422344  0.88023898     0.67000
H1378       H  0.41713672  0.76126345  0.88012958     0.15900
H1379       H  0.39435862  0.81830339  0.82650404     0.15600
N1380       N  0.35343452  0.74589717  0.82666028     0.74700
O1381       O  0.44839531  0.84867425  0.89233039    -0.38700
O1382       O  0.48697405  0.83188822  0.88270721    -0.38700
O1383       O  0.32355606  0.74616954  0.82471970    -0.39400
O1384       O  0.36427228  0.73309899  0.81417311    -0.39400
C1385       C  0.44141483  0.98457560  0.79871837    -0.11700
C1386       C  0.41532371  0.95869693  0.78645958     0.05300
C1387       C  0.40494455  0.92095104  0.78828064    -0.07000
C1388       C  0.41979142  0.90989909  0.80230873    -0.07700
C1389       C  0.44539419  0.93561624  0.81477430    -0.02300
C1390       C  0.45650147  0.97350056  0.81270795     0.04500
N1391       N  0.48193179  0.00096857  0.82502938     0.67000
H1392       H  0.44991323  0.01377496  0.79764515     0.15900
H1393       H  0.41127283  0.88067628  0.80329247     0.15600
N1394       N  0.37997107  0.89343061  0.77583318     0.74700
O1395       O  0.51554651  0.02070115  0.82067758    -0.38700
O1396       O  0.46963526  0.01074211  0.83816567    -0.38700
O1397       O  0.39281406  0.88469797  0.76253342    -0.39400
O1398       O  0.34653082  0.87259444  0.78021468    -0.39400
C1399       C  0.01867855  0.57986737  0.87291482    -0.11700
C1400       C  0.04100988  0.61266744  0.88277234     0.05300
C1401       C  0.07966507  0.62731220  0.88290322    -0.07000
C1402       C  0.09512769  0.60964520  0.87332910    -0.07700
C1403       C  0.07331625  0.57720380  0.86308998    -0.02300
C1404       C  0.03441280  0.56232643  0.86295251     0.04500
N1405       N  0.01047691  0.52988694  0.85267946     0.67000
H1406       H  0.98887825  0.56821095  0.87259948     0.15900
H1407       H  0.12499372  0.62207743  0.87398486     0.15600
N1408       N  0.10386992  0.65976984  0.89315247     0.74700
O1409       O  0.99412177  0.49863993  0.86036282    -0.38700
O1410       O  0.00005171  0.53336566  0.83716033    -0.38700
O1411       O  0.11413692  0.65622376  0.90869898    -0.39400
O1412       O  0.12097566  0.69082666  0.88532237    -0.39400
C1413       C  0.20600231  0.60532296  0.86530683    -0.11700
C1414       C  0.19139729  0.58516458  0.84917521     0.05300
C1415       C  0.21629408  0.58578481  0.83607961    -0.07000
C1416       C  0.25455147  0.60645034  0.83930232    -0.07700
C1417       C  0.26881000  0.62716534  0.85518837    -0.02300
C1418       C  0.24423773  0.62619566  0.86837269     0.04500
N1419       N  0.25766714  0.64531460  0.88516241     0.67000
H1420       H  0.18760427  0.60488438  0.87573096     0.15900
H1421       H  0.27342122  0.60732419  0.82901849     0.15600
N1422       N  0.20364716  0.56758175  0.81902696     0.74700
O1423       O  0.25896371  0.67591248  0.88761160    -0.38700
O1424       O  0.26077097  0.62828045  0.89852775    -0.38700
O1425       O  0.19442985  0.58267944  0.80689945    -0.39400
O1426       O  0.21071658  0.54254309  0.81466057    -0.39400
C1427       C  0.04992978  0.48629389  0.80761324    -0.11700
C1428       C  0.07809523  0.48843514  0.81884949     0.05300
C1429       C  0.09202053  0.46433037  0.81540895    -0.07000
C1430       C  0.07961264  0.44080752  0.80034795    -0.07700
C1431       C  0.05233475  0.43944825  0.78879321    -0.02300
C1432       C  0.03684788  0.46197495  0.79275056     0.04500
N1433       N  0.00937385  0.46209246  0.78126467     0.67000
H1434       H  0.03899682  0.50467270  0.80992194     0.15900
H1435       H  0.09075179  0.42261257  0.79797349     0.15600
N1436       N  0.11740143  0.46195599  0.82756634     0.74700
O1437       O  0.97575743  0.44411035  0.78583827    -0.38700
O1438       O  0.01923985  0.48581910  0.76879528    -0.38700
O1439       O  0.10507132  0.44290384  0.84175803    -0.39400
O1440       O  0.14925800  0.47043614  0.82209324    -0.39400
C1441       C  0.90553062  0.20467613  0.79577773    -0.11700
C1442       C  0.92923114  0.19187271  0.80159327     0.05300
C1443       C  0.96704384  0.21250803  0.79682379    -0.07000
C1444       C  0.97999259  0.24387715  0.78593295    -0.07700
C1445       C  0.95643253  0.25627066  0.77950185    -0.02300
C1446       C  0.91874188  0.23654020  0.78476331     0.04500
N1447       N  0.89356033  0.24830091  0.77911165     0.67000
H1448       H  0.87638337  0.18922496  0.79928938     0.15900
H1449       H  0.00916966  0.25862073  0.78245829     0.15600
N1450       N  0.99313177  0.20245991  0.80323855     0.74700
O1451       O  0.87357722  0.23369529  0.76532892    -0.38700
O1452       O  0.88568670  0.26680677  0.78983485    -0.38700
O1453       O  0.00650625  0.18900368  0.79238626    -0.39400
O1454       O  0.00840279  0.21422402  0.81841863    -0.39400
C1455       C  0.78333456  0.39312215  0.62127778    -0.11700
C1456       C  0.76112798  0.36845103  0.63482523     0.05300
C1457       C  0.77822600  0.36397056  0.65027461    -0.07000
C1458       C  0.81671762  0.38414446  0.65200039    -0.07700
C1459       C  0.83929144  0.40896570  0.63855977    -0.02300
C1460       C  0.82214457  0.41304543  0.62289320     0.04500
N1461       N  0.84357933  0.43598821  0.60822101     0.67000
H1462       H  0.77044824  0.39644515  0.60920641     0.15900
H1463       H  0.82889157  0.38097820  0.66435690     0.15600
N1464       N  0.75677920  0.34039107  0.66478295     0.74700
O1465       O  0.85458964  0.42250263  0.59614086    -0.38700
O1466       O  0.84492839  0.46651906  0.60542327    -0.38700
O1467       O  0.75584188  0.30996609  0.66726967    -0.39400
O1468       O  0.74588786  0.35340198  0.67714400    -0.39400
C1469       C  0.93978810  0.37658671  0.69482871    -0.11700
C1470       C  0.97456426  0.40064462  0.70245984     0.05300
C1471       C  0.99572591  0.43682302  0.69517514    -0.07000
C1472       C  0.98182800  0.44787954  0.68060749    -0.07700
C1473       C  0.94677622  0.42378352  0.67302338    -0.02300
C1474       C  0.92582379  0.38748962  0.68036475     0.04500
N1475       N  0.89029468  0.36084979  0.67332434     0.67000
H1476       H  0.92310906  0.34855415  0.70000233     0.15900
H1477       H  0.99840327  0.47598195  0.67551484     0.15600
N1478       N  0.03082752  0.46319055  0.70272339     0.74700
O1479       O  0.88833307  0.34027924  0.66036746    -0.38700
O1480       O  0.86175439  0.35192474  0.68260661    -0.38700
O1481       O  0.06014898  0.47054729  0.69451329    -0.39400
O1482       O  0.03221845  0.48423642  0.71532209    -0.39400
C1483       C  0.21492288  0.89527166  0.69714026    -0.11700
C1484       C  0.20075753  0.91860389  0.69276968     0.05300
C1485       C  0.22033995  0.95594733  0.69873804    -0.07000
C1486       C  0.25301262  0.96901613  0.70870066    -0.07700
C1487       C  0.26717988  0.94584732  0.71322681    -0.02300
C1488       C  0.24755561  0.90838332  0.70746281     0.04500
N1489       N  0.26042064  0.88338945  0.71178478     0.67000
H1490       H  0.20017952  0.86643342  0.69284240     0.15900
H1491       H  0.26741022  0.99787528  0.71297844     0.15600
N1492       N  0.20817834  0.98154329  0.69438522     0.74700
O1493       O  0.24841236  0.86346809  0.72573317    -0.38700
O1494       O  0.27724474  0.87572977  0.69998131    -0.38700
O1495       O  0.19529919  0.99271439  0.70668031    -0.39400
O1496       O  0.21780622  0.99887046  0.67960624    -0.39400
C1497       C  0.09798546  0.94881797  0.69465519    -0.11700
C1498       C  0.08747749  0.92311472  0.68029003     0.05300
C1499       C  0.05573189  0.91549801  0.67002600    -0.07000
C1500       C  0.03670670  0.93443506  0.67373614    -0.07700
C1501       C  0.04817313  0.96086583  0.68763563    -0.02300
C1502       C  0.07875884  0.96756012  0.69835845     0.04500
N1503       N  0.09007626  0.99255703  0.71335327     0.67000
H1504       H  0.12131580  0.95459924  0.70317863     0.15900
H1505       H  0.01317517  0.92899868  0.66537916     0.15600
N1506       N  0.04264087  0.88939121  0.65549810     0.74700
O1507       O  0.07445405  0.98094083  0.72841619    -0.38700
O1508       O  0.11999365  0.02326648  0.71253783    -0.38700
O1509       O  0.01861527  0.85598263  0.65862716    -0.39400
O1510       O  0.04730074  0.90125816  0.63950294    -0.39400
C1511       C  0.09049709  0.81197024  0.61582619    -0.11700
C1512       C  0.08564892  0.77711129  0.62042932     0.05300
C1513       C  0.09502537  0.77184267  0.63813720    -0.07000
C1514       C  0.10838778  0.80104923  0.65076137    -0.07700
C1515       C  0.11259847  0.83562677  0.64611858    -0.02300
C1516       C  0.10431016  0.84120280  0.62833678     0.04500
N1517       N  0.11206695  0.87708013  0.62242740     0.67000
H1518       H  0.08457450  0.81700356  0.60218734     0.15900
H1519       H  0.11443667  0.79631637  0.66443577     0.15600
N1520       N  0.08939293  0.73658862  0.64381738     0.74700
O1521       O  0.14534288  0.90257037  0.62058373    -0.38700
O1522       O  0.08666997  0.88076324  0.61526232    -0.38700
O1523       O  0.11693777  0.73219602  0.64586390    -0.39400
O1524       O  0.05840936  0.71277560  0.65018125    -0.39400
C1525       C  0.97246476  0.58225187  0.62225812    -0.11700
C1526       C  0.99929058  0.58770699  0.60931762     0.05300
C1527       C  0.00808503  0.55931752  0.60682755    -0.07000
C1528       C  0.98943769  0.52622967  0.61687874    -0.07700
C1529       C  0.96164018  0.52058340  0.62918267    -0.02300
C1530       C  0.95363936  0.54917444  0.63202556     0.04500
N1531       N  0.92648856  0.54508071  0.64491670     0.67000
H1532       H  0.96548718  0.60366254  0.62471254     0.15900
H1533       H  0.99552147  0.50417553  0.61445790     0.15600
N1534       N  0.03423049  0.56262635  0.59352419     0.74700
O1535       O  0.93644591  0.55627427  0.66089002    -0.38700
O1536       O  0.89478304  0.53766909  0.63955514    -0.38700
O1537       O  0.06588669  0.56905028  0.59841240    -0.39400
O1538       O  0.02328889  0.55172073  0.57761009    -0.39400
C1539       C  0.26345150  0.71563197  0.48147984    -0.11700
C1540       C  0.27002701  0.74505942  0.46982160     0.05300
C1541       C  0.29516534  0.75323051  0.45538396    -0.07000
C1542       C  0.31358111  0.73308741  0.45335674    -0.07700
C1543       C  0.30767858  0.70461846  0.46538338    -0.02300
C1544       C  0.28205353  0.69579749  0.47952056     0.04500
N1545       N  0.27641439  0.66852075  0.49279137     0.67000
H1546       H  0.24461498  0.70854704  0.49276942     0.15900
H1547       H  0.33286246  0.73990164  0.44226760     0.15600
N1548       N  0.30229651  0.78154237  0.44251203     0.74700
O1549       O  0.29867493  0.67747475  0.50590840    -0.38700
O1550       O  0.24572112  0.63855506  0.49344471    -0.38700
O1551       O  0.33131665  0.81289273  0.44405972    -0.39400
O1552       O  0.28546791  0.77238702  0.42755878    -0.39400
C1553       C  0.17597811  0.73010333  0.51680658    -0.11700
C1554       C  0.18663252  0.76494041  0.50900872     0.05300
C1555       C  0.17135594  0.78571657  0.51625622    -0.07000
C1556       C  0.14523654  0.77086814  0.53024861    -0.07700
C1557       C  0.13393887  0.73563351  0.53765337    -0.02300
C1558       C  0.15022497  0.71549756  0.53090597     0.04500
N1559       N  0.14037321  0.67969461  0.53784003     0.67000
H1560       H  0.18726069  0.71339948  0.51178667     0.15900
H1561       H  0.13367264  0.78726958  0.53535049     0.15600
N1562       N  0.18219679  0.82210549  0.50981271     0.74700
O1563       O  0.11483925  0.65100483  0.53027274    -0.38700
O1564       O  0.16193473  0.67660288  0.54874546    -0.38700
O1565       O  0.16083926  0.82669661  0.49942389    -0.39400
O1566       O  0.20912650  0.84999005  0.51718527    -0.39400
C1567       C  0.11395145  0.29152795  0.70767778    -0.11700
C1568       C  0.10438683  0.28511217  0.68933159     0.05300
C1569       C  0.08263336  0.29879759  0.68178677    -0.07000
C1570       C  0.06842530  0.31592160  0.69290415    -0.07700
C1571       C  0.07671340  0.32111766  0.71146177    -0.02300
C1572       C  0.10104907  0.31007627  0.71867683     0.04500
N1573       N  0.11114336  0.31538121  0.73733616     0.67000
H1574       H  0.13083946  0.28124806  0.71361462     0.15900
H1575       H  0.05032339  0.32476778  0.68701326     0.15600
N1576       N  0.07349936  0.29416683  0.66300950     0.74700
O1577       O  0.09257340  0.28962073  0.74840857    -0.38700
O1578       O  0.14261802  0.34171758  0.74193799    -0.38700
O1579       O  0.04157790  0.26940722  0.65798192    -0.39400
O1580       O  0.09434247  0.31914227  0.65204800    -0.39400
C1581       C  0.09310405  0.13668233  0.66689461    -0.11700
C1582       C  0.08437697  0.15942765  0.67738775     0.05300
C1583       C  0.05686018  0.14217780  0.69085960    -0.07000
C1584       C  0.03909927  0.10357827  0.69343381    -0.07700
C1585       C  0.04793269  0.08108808  0.68292968    -0.02300
C1586       C  0.07524404  0.09812849  0.66943613     0.04500
N1587       N  0.08396671  0.07662104  0.65754096     0.67000
H1588       H  0.11365271  0.14868205  0.65628805     0.15900
H1589       H  0.01837637  0.09108777  0.70394667     0.15600
N1590       N  0.04663294  0.16320122  0.70222163     0.74700
O1591       O  0.06444734  0.06245683  0.64357992    -0.38700
O1592       O  0.11527866  0.07908964  0.65867836    -0.38700
O1593       O  0.01724578  0.16371065  0.69891394    -0.39400
O1594       O  0.06242504  0.17455620  0.71732942    -0.39400
C1595       C  0.23372633  0.31568892  0.62788758    -0.11700
C1596       C  0.23715981  0.28991499  0.61702396     0.05300
C1597       C  0.21085937  0.25180947  0.61906503    -0.07000
C1598       C  0.18262036  0.24042488  0.63190900    -0.07700
C1599       C  0.17948404  0.26612700  0.64305459    -0.02300
C1600       C  0.20554730  0.30433096  0.64078055     0.04500
N1601       N  0.20484142  0.33207494  0.65180496     0.67000
H1602       H  0.25357623  0.34515006  0.62664502     0.15900
H1603       H  0.16290949  0.21092089  0.63308285     0.15600
N1604       N  0.21199188  0.22418233  0.60810931     0.74700
O1605       O  0.22346299  0.34206825  0.66625478    -0.38700
O1606       O  0.19254739  0.35179144  0.64532821    -0.38700
O1607       O  0.22484173  0.20496439  0.61460714    -0.39400
O1608       O  0.19355414  0.21397757  0.59360820    -0.39400
C1609       C  0.47447076  0.43127015  0.63389502    -0.11700
C1610       C  0.50572637  0.43461633  0.62509947     0.05300
C1611       C  0.50265174  0.42510002  0.60660689    -0.07000
C1612       C  0.46849207  0.41086456  0.59763237     0.05500
C1613       C  0.43661061  0.40530426  0.60669552    -0.02300
C1614       C  0.44011641  0.41650678  0.62497495     0.04500
N1615       N  0.40903355  0.41269262  0.63479044     0.67000
H1616       H  0.47622215  0.43855276  0.64806927     0.15900
H1617       H  0.46669919  0.40281228  0.58357284     0.15600
N1618       N  0.53403111  0.42997555  0.59665892     0.74700
O1619       O  0.39051996  0.38438235  0.64450923    -0.38700
O1620       O  0.40512204  0.44059529  0.63677945    -0.38700
O1621       O  0.53546736  0.40181904  0.59159383    -0.39400
O1622       O  0.55558607  0.46114888  0.58964737    -0.39400
C1623       C  0.28898517  0.56471862  0.45338224    -0.11700
C1624       C  0.31480317  0.58833062  0.46622868     0.05300
C1625       C  0.32262045  0.57288954  0.48133689    -0.07000
C1626       C  0.30417775  0.53442986  0.48351041    -0.07700
C1627       C  0.27765776  0.51044901  0.47093057    -0.02300
C1628       C  0.27067169  0.52602524  0.45545260     0.04500
N1629       N  0.24629873  0.50319654  0.44139710     0.67000
H1630       H  0.28335381  0.57645480  0.44151330     0.15900
H1631       H  0.30978105  0.52342869  0.49565329     0.15600
N1632       N  0.34748858  0.59596879  0.49518439     0.74700
O1633       O  0.21659611  0.50334702  0.43852378    -0.38700
O1634       O  0.25872253  0.49122889  0.42925554    -0.38700
O1635       O  0.33479443  0.60443815  0.50863654    -0.39400
O1636       O  0.37969360  0.60053135  0.49600132    -0.39400
C1637       C  0.24550620  0.36665428  0.51078366    -0.11700
C1638       C  0.26462572  0.40489575  0.50692038     0.05300
C1639       C  0.29706905  0.42821780  0.51711664    -0.07000
C1640       C  0.30881363  0.41328963  0.53083644    -0.07700
C1641       C  0.28943276  0.37523739  0.53485071    -0.02300
C1642       C  0.25752591  0.35171480  0.52444087     0.04500
N1643       N  0.23670550  0.31257485  0.52754219     0.67000
H1644       H  0.22075717  0.34791741  0.50317972     0.15900
H1645       H  0.33351240  0.43198497  0.53848603     0.15600
N1646       N  0.31825479  0.46737809  0.51414676     0.74700
O1647       O  0.20839365  0.29936722  0.53745717    -0.38700
O1648       O  0.24160793  0.29107509  0.51743055    -0.38700
O1649       O  0.31495166  0.48901310  0.52489260    -0.39400
O1650       O  0.34563410  0.48026606  0.50362005    -0.39400
C1651       C  0.73466462  0.80820145  0.71450666    -0.11700
C1652       C  0.73010442  0.80498319  0.69567709     0.05300
C1653       C  0.70441610  0.77020491  0.68819455    -0.07000
C1654       C  0.68524100  0.73927464  0.69945554    -0.07700
C1655       C  0.69084188  0.74202694  0.71824541    -0.02300
C1656       C  0.71503617  0.77732033  0.72582118     0.04500
N1657       N  0.72145008  0.78206378  0.74484114     0.67000
H1658       H  0.75406502  0.83487100  0.72048979     0.15900
H1659       H  0.66692416  0.71245910  0.69329959     0.15600
N1660       N  0.69966454  0.76499544  0.66910991     0.74700
O1661       O  0.75040570  0.78430784  0.75140850    -0.38700
O1662       O  0.70287959  0.79204215  0.75426049    -0.38700
O1663       O  0.72152022  0.75843849  0.66028403    -0.39400
O1664       O  0.66918841  0.75772172  0.66207978    -0.39400
C1665       C  0.86681822  0.92005421  0.69850843    -0.11700
C1666       C  0.85341803  0.91066773  0.68074612     0.05300
C1667       C  0.87870541  0.92554817  0.66626782    -0.07000
C1668       C  0.91626131  0.94984489  0.66971887    -0.07700
C1669       C  0.92958341  0.95931504  0.68738794    -0.02300
C1670       C  0.90468244  0.94423293  0.70191054     0.04500
N1671       N  0.91748824  0.95322610  0.72010331     0.67000
H1672       H  0.84771009  0.90912074  0.70979650     0.15900
H1673       H  0.93553232  0.96041115  0.65847459     0.15600
N1674       N  0.86706611  0.91444124  0.64803693     0.74700
O1675       O  0.91786937  0.98045325  0.72777036    -0.38700
O1676       O  0.92154026  0.93016771  0.72941252    -0.38700
O1677       O  0.86923793  0.93811515  0.63673556    -0.39400
O1678       O  0.86221520  0.88365491  0.64250227    -0.39400
C1679       C  0.69711727  0.89126955  0.62768594    -0.11700
C1680       C  0.72285818  0.92212718  0.61762130     0.05300
C1681       C  0.76093725  0.93633166  0.62080948    -0.07000
C1682       C  0.77229301  0.92054560  0.63418648    -0.07700
C1683       C  0.74665892  0.89049440  0.64481256    -0.02300
C1684       C  0.70848041  0.87547028  0.64115528     0.04500
N1685       N  0.68064697  0.84474426  0.65108253     0.67000
H1686       H  0.66761507  0.87957450  0.62539228     0.15900
H1687       H  0.80186103  0.93267861  0.63636233     0.15600
N1688       N  0.78863906  0.96710386  0.61081602     0.74700
O1689       O  0.66778357  0.85086099  0.66521240    -0.38700
O1690       O  0.66250550  0.81361346  0.64335199    -0.38700
O1691       O  0.80358231  0.99929497  0.61755547    -0.39400
O1692       O  0.80348065  0.96116054  0.59740921    -0.39400
C1693       C  0.58780823  0.99519855  0.61758551    -0.11700
C1694       C  0.62659636  0.01241724  0.61655820     0.05300
C1695       C  0.64846328  0.04688828  0.62542914    -0.07000
C1696       C  0.63146528  0.06440613  0.63377832    -0.07700
C1697       C  0.59284647  0.04817673  0.63397437    -0.02300
C1698       C  0.57080100  0.01257952  0.62632597     0.04500
N1699       N  0.53131947  0.99471740  0.62627350     0.67000
H1700       H  0.57043954  0.96855572  0.61103121     0.15900
H1701       H  0.64883974  0.09143843  0.64000321     0.15600
N1702       N  0.68802956  0.06538981  0.62552107     0.74700
O1703       O  0.51524765  0.00178286  0.61375620    -0.38700
O1704       O  0.51293330  0.96592228  0.63569592    -0.38700
O1705       O  0.70616231  0.09177467  0.61467849    -0.39400
O1706       O  0.70453609  0.06068789  0.63866009    -0.39400
C1707       C  0.49304502  0.72563170  0.45625885    -0.11700
C1708       C  0.50801022  0.75207128  0.47027364     0.05300
C1709       C  0.48332758  0.75817507  0.48087226    -0.07000
C1710       C  0.44531409  0.73809540  0.47738673    -0.07700
C1711       C  0.43053687  0.71161578  0.46356108    -0.02300
C1712       C  0.45480541  0.70547977  0.45284408     0.04500
N1713       N  0.44123826  0.67957572  0.43819407     0.67000
H1714       H  0.51104451  0.72029730  0.44783738     0.15900
H1715       H  0.42697050  0.74257175  0.48601780     0.15600
N1716       N  0.49584489  0.78381592  0.49560846     0.74700
O1717       O  0.43689171  0.69015195  0.42288637    -0.38700
O1718       O  0.44173882  0.64962602  0.43946854    -0.38700
O1719       O  0.50140404  0.81619291  0.49312015    -0.39400
O1720       O  0.49230846  0.77160530  0.51150304    -0.39400
C1721       C  0.59020036  0.83450833  0.52132921    -0.11700
C1722       C  0.61474168  0.83901794  0.50732538     0.05300
C1723       C  0.65172311  0.86855011  0.50849774    -0.07000
C1724       C  0.66289872  0.89321129  0.52313272    -0.07700
C1725       C  0.63796619  0.88931030  0.53683599    -0.02300
C1726       C  0.60129662  0.85912221  0.53593089     0.04500
N1727       N  0.57501194  0.85262668  0.54978432     0.67000
H1728       H  0.56187392  0.81146240  0.52102825     0.15900
H1729       H  0.69130879  0.91611869  0.52353368     0.15600
N1730       N  0.67791680  0.87499379  0.49461406     0.74700
O1731       O  0.55195564  0.86340538  0.54754312    -0.38700
O1732       O  0.56975968  0.82967027  0.56215502    -0.38700
O1733       O  0.68263466  0.89736872  0.48203524    -0.39400
O1734       O  0.70100142  0.86423392  0.49680087    -0.39400
C1735       C  0.77071606  0.09453229  0.54680832    -0.11700
C1736       C  0.73309348  0.07726492  0.55143176     0.05300
C1737       C  0.71344070  0.09593179  0.54766807    -0.07000
C1738       C  0.73160860  0.13104965  0.53962378    -0.07700
C1739       C  0.76927243  0.14842346  0.53501430    -0.02300
C1740       C  0.78892241  0.12975105  0.53869093     0.04500
N1741       N  0.82771876  0.14679076  0.53523100     0.67000
H1742       H  0.78638902  0.08083931  0.54977576     0.15900
H1743       H  0.71587618  0.14477950  0.53686606     0.15600
N1744       N  0.67530414  0.08025058  0.55240559     0.74700
O1745       O  0.85025198  0.17345996  0.54506023    -0.38700
O1746       O  0.83945955  0.12983855  0.52568697    -0.38700
O1747       O  0.66684587  0.09026825  0.56682669    -0.39400
O1748       O  0.65051049  0.06218405  0.54075652    -0.39400
C1749       C  0.88978818  0.23061824  0.46703900    -0.11700
C1750       C  0.90304924  0.26625493  0.45977543     0.05300
C1751       C  0.88965620  0.28860473  0.46691523    -0.07000
C1752       C  0.86432119  0.27540818  0.48111779    -0.07700
C1753       C  0.85095067  0.23980482  0.48857833    -0.02300
C1754       C  0.86381266  0.21707387  0.48110671     0.04500
N1755       N  0.85104366  0.18022952  0.48746027     0.67000
H1756       H  0.89944639  0.21276252  0.46164544     0.15900
H1757       H  0.85550915  0.29395693  0.48647021     0.15600
N1758       N  0.90233369  0.32534097  0.46038315     0.74700
O1759       O  0.82034535  0.15406611  0.48185994    -0.38700
O1760       O  0.87396813  0.17267239  0.49454068    -0.38700
O1761       O  0.88221560  0.33094669  0.44959691    -0.39400
O1762       O  0.92885825  0.35261265  0.46832773    -0.39400
C1763       C  0.04213011  0.46740527  0.37589857    -0.11700
C1764       C  0.06843409  0.47110540  0.36309455     0.05300
C1765       C  0.07545174  0.44175360  0.36067065    -0.07000
C1766       C  0.05707521  0.40981531  0.37125389    -0.07700
C1767       C  0.03174372  0.40629881  0.38463796    -0.02300
C1768       C  0.02394047  0.43545585  0.38677284     0.04500
N1769       N  0.99933817  0.43411056  0.40048145     0.67000
H1770       H  0.03704872  0.49020321  0.37809403     0.15900
H1771       H  0.06334591  0.38781162  0.36910941     0.15600
N1772       N  0.10144945  0.44407018  0.34752145     0.74700
O1773       O  0.01188602  0.44638855  0.41605139    -0.38700
O1774       O  0.96754391  0.42806995  0.39613010    -0.38700
O1775       O  0.13261416  0.44938862  0.35260644    -0.39400
O1776       O  0.09044875  0.43290532  0.33164544    -0.39400
C1777       C  0.10392971  0.38565156  0.45796480    -0.11700
C1778       C  0.09134098  0.35017323  0.45062726     0.05300
C1779       C  0.11389756  0.33397526  0.45253517    -0.07000
C1780       C  0.14875907  0.35404808  0.46100058    -0.07700
C1781       C  0.16177864  0.39023701  0.46747531    -0.02300
C1782       C  0.13855133  0.40561787  0.46626499     0.04500
N1783       N  0.14930998  0.44127436  0.47376248     0.67000
H1784       H  0.08706061  0.39861447  0.45701211     0.15900
H1785       H  0.16626757  0.34178761  0.46193708     0.15600
N1786       N  0.10225678  0.29761112  0.44576395     0.74700
O1787       O  0.15654673  0.46801641  0.46333560    -0.38700
O1788       O  0.14259337  0.44355817  0.49015124    -0.38700
O1789       O  0.11492977  0.29400954  0.43094980    -0.39400
O1790       O  0.08592716  0.27001786  0.45614894    -0.39400
C1791       C  0.82031293  0.10828030  0.29315417    -0.11700
C1792       C  0.82932321  0.08557530  0.30334020     0.05300
C1793       C  0.80405313  0.04714568  0.30415707    -0.07000
C1794       C  0.77094448  0.03186992  0.29435935    -0.07700
C1795       C  0.76230212  0.05413493  0.28345877    -0.02300
C1796       C  0.78726992  0.09295232  0.28311779     0.04500
N1797       N  0.78029902  0.11706684  0.27221413     0.67000
H1798       H  0.83976534  0.13792209  0.29238375     0.15900
H1799       H  0.75219737  0.00208821  0.29508421     0.15600
N1800       N  0.81131833  0.02330990  0.31514638     0.74700
O1801       O  0.76472375  0.13334864  0.27909869    -0.38700
O1802       O  0.79619875  0.12779910  0.25715219    -0.38700
O1803       O  0.79972111  0.01698384  0.33118598    -0.39400
O1804       O  0.82106114  0.00229461  0.30779049    -0.39400
C1805       C  0.96019638  0.04405777  0.29305374    -0.11700
C1806       C  0.99088661  0.05341114  0.30420458     0.05300
C1807       C  0.00193465  0.08261108  0.31677166    -0.07000
C1808       C  0.98077886  0.09984326  0.31877021    -0.07700
C1809       C  0.94837395  0.08865125  0.30851669    -0.02300
C1810       C  0.93911052  0.06136264  0.29495235     0.04500
N1811       N  0.90842755  0.05059242  0.28298921     0.67000
H1812       H  0.95208239  0.02251960  0.28288107     0.15900
H1813       H  0.98905912  0.12103754  0.32912404     0.15600
N1814       N  0.03290787  0.09338326  0.32853727     0.74700
O1815       O  0.91257779  0.06997699  0.26915734    -0.38700
O1816       O  0.88102582  0.01800702  0.28381008    -0.38700
O1817       O  0.06214688  0.12418895  0.32613239    -0.39400
O1818       O  0.02834018  0.07642597  0.34326802    -0.39400
C1819       C  0.95823775  0.18096135  0.35558348    -0.11700
C1820       C  0.92591317  0.17284748  0.34592162     0.05300
C1821       C  0.90664518  0.19123855  0.35102134    -0.07000
C1822       C  0.91923760  0.21594632  0.36569046    -0.07700
C1823       C  0.95131803  0.22365858  0.37541555    -0.02300
C1824       C  0.97112628  0.20608128  0.37002093     0.04500
N1825       N  0.00489461  0.21391864  0.37872261     0.67000
H1826       H  0.97394396  0.16764700  0.35200892     0.15900
H1827       H  0.90388119  0.22960786  0.36931491     0.15600
N1828       N  0.87505297  0.18635047  0.34114359     0.74700
O1829       O  0.00441720  0.19187867  0.39054539    -0.38700
O1830       O  0.03541789  0.23785770  0.37199234    -0.38700
O1831       O  0.84319111  0.16751614  0.34791912    -0.39400
O1832       O  0.87965546  0.20682849  0.32769982    -0.39400
C1833       C  0.88160458  0.64544233  0.53878075    -0.11700
C1834       C  0.87665584  0.62094969  0.52465692     0.05300
C1835       C  0.90589252  0.61494230  0.52015796    -0.07000
C1836       C  0.93893635  0.63232454  0.53008779    -0.07700
C1837       C  0.94361495  0.65547621  0.54488364    -0.02300
C1838       C  0.91463273  0.66259252  0.54896707     0.04500
N1839       N  0.91731281  0.68542686  0.56393375     0.67000
H1840       H  0.85902686  0.64988306  0.54249797     0.15900
H1841       H  0.96069918  0.62659625  0.52645750     0.15600
N1842       N  0.90211882  0.59054854  0.50571162     0.74700
O1843       O  0.92679964  0.71897314  0.56126713    -0.38700
O1844       O  0.90271100  0.67039236  0.57877115    -0.38700
O1845       O  0.91626209  0.60400393  0.49057443    -0.39400
O1846       O  0.89152693  0.55695785  0.50904386    -0.39400
C1847       C  0.80173405  0.63715796  0.47308194    -0.11700
C1848       C  0.77661890  0.60631649  0.48334019     0.05300
C1849       C  0.73835539  0.58968461  0.47934968    -0.07000
C1850       C  0.72643478  0.60248960  0.46475600    -0.07700
C1851       C  0.75157713  0.63277499  0.45427695    -0.02300
C1852       C  0.78965169  0.65068294  0.45883279     0.04500
N1853       N  0.81661313  0.68214912  0.44894430     0.67000
H1854       H  0.83123111  0.65058731  0.47587198     0.15900
H1855       H  0.69693564  0.58921647  0.46197711     0.15600
N1856       N  0.71096215  0.56135458  0.49059811     0.74700
O1857       O  0.82686215  0.71443097  0.45469242    -0.38700
O1858       O  0.83529415  0.67776298  0.43687143    -0.38700
O1859       O  0.70331487  0.57044535  0.50551902    -0.39400
O1860       O  0.68847480  0.53013717  0.48382913    -0.39400
C1861       C  0.59229141  0.57532508  0.37253786    -0.11700
C1862       C  0.59696941  0.59621009  0.38828330     0.05300
C1863       C  0.56622384  0.59794482  0.39489918    -0.07000
C1864       C  0.53293720  0.58130275  0.38524553    -0.07700
C1865       C  0.52884498  0.56279446  0.36878685    -0.02300
C1866       C  0.55848732  0.55821102  0.36292571     0.04500
N1867       N  0.55523441  0.53720906  0.34709550     0.67000
H1868       H  0.61528876  0.57292915  0.36740532     0.15900
H1869       H  0.51038592  0.58426699  0.39050272     0.15600
N1870       N  0.56896423  0.61899845  0.41065418     0.74700
O1871       O  0.56938726  0.55384199  0.33249373    -0.38700
O1872       O  0.54499064  0.50319505  0.34856915    -0.38700
O1873       O  0.57637449  0.65219483  0.40898268    -0.39400
O1874       O  0.55646345  0.60242567  0.42545200    -0.39400
C1875       C  0.64625215  0.74968714  0.42892445    -0.11700
C1876       C  0.67204859  0.74343380  0.43815803     0.05300
C1877       C  0.67914812  0.75351221  0.45661447    -0.07000
C1878       C  0.65970437  0.76819979  0.46543969    -0.07700
C1879       C  0.63243199  0.77236661  0.45641468    -0.02300
C1880       C  0.62640804  0.76376170  0.43784064     0.04500
N1881       N  0.60038881  0.76937336  0.42777879     0.67000
H1882       H  0.64039573  0.74242932  0.41475117     0.15900
H1883       H  0.66467089  0.77456220  0.47973637     0.15600
N1884       N  0.70487556  0.74772463  0.46683787     0.74700
O1885       O  0.61037865  0.80103357  0.42128568    -0.38700
O1886       O  0.57049237  0.74166224  0.42244985    -0.38700
O1887       O  0.73658773  0.77496097  0.47030717    -0.39400
O1888       O  0.69346853  0.71774937  0.47541819    -0.39400
C1889       C  0.96900079  0.75047660  0.29631916    -0.11700
C1890       C  0.93028375  0.73060015  0.29820995     0.05300
C1891       C  0.91056944  0.69321742  0.29243341    -0.07000
C1892       C  0.92960250  0.67715254  0.28434566    -0.07700
C1893       C  0.96823818  0.69756179  0.28193240    -0.02300
C1894       C  0.98799393  0.73453813  0.28837337     0.04500
N1895       N  0.02722514  0.75704838  0.28628856     0.67000
H1896       H  0.98490054  0.77911203  0.30086977     0.15900
H1897       H  0.91383233  0.64869648  0.27955435     0.15600
N1898       N  0.87116879  0.67172881  0.29372720     0.74700
O1899       O  0.04012989  0.77803961  0.27273316    -0.38700
O1900       O  0.04824512  0.76146646  0.29948913    -0.38700
O1901       O  0.85159726  0.67439856  0.28146694    -0.39400
O1902       O  0.85674004  0.64404677  0.30414141    -0.39400
C1903       C  0.93475656  0.87206454  0.32069445    -0.11700
C1904       C  0.93546651  0.84956654  0.30673338     0.05300
C1905       C  0.95727142  0.86684550  0.29130362    -0.07000
C1906       C  0.97845648  0.90565928  0.29038201    -0.07700
C1907       C  0.97815118  0.92783718  0.30450560    -0.02300
C1908       C  0.95591593  0.91080833  0.31973313     0.04500
N1909       N  0.95632779  0.93242738  0.33480304     0.67000
H1910       H  0.91876232  0.85957502  0.33280918     0.15900
H1911       H  0.99518339  0.91861749  0.27851014     0.15600
N1912       N  0.95745257  0.84554724  0.27623958     0.74700
O1913       O  0.92957451  0.93792011  0.33716030    -0.38700
O1914       O  0.97950766  0.93984283  0.34737226    -0.38700
O1915       O  0.93485473  0.83860667  0.26344293    -0.39400
O1916       O  0.98463642  0.84069247  0.27397451    -0.39400
C1917       C  0.84013228  0.76641208  0.35166663    -0.11700
C1918       C  0.84141774  0.74103617  0.33952099     0.05300
C1919       C  0.81573543  0.70283179  0.34183473    -0.07000
C1920       C  0.79005924  0.69101736  0.35601265    -0.07700
C1921       C  0.78889539  0.71644712  0.36809338    -0.02300
C1922       C  0.81449277  0.75462817  0.36578370     0.04500
N1923       N  0.81584396  0.78184796  0.37798418     0.67000
H1924       H  0.85980831  0.79593965  0.35052355     0.15900
H1925       H  0.77044312  0.66152071  0.35738609     0.15600
N1926       N  0.81443740  0.67560196  0.32969977     0.74700
O1927       O  0.83574219  0.79009281  0.39199477    -0.38700
O1928       O  0.80339854  0.80248329  0.37305167    -0.38700
O1929       O  0.82128132  0.65126517  0.33559872    -0.39400
O1930       O  0.79821597  0.67056184  0.31468106    -0.39400
C1931       C  0.76488905  0.32083769  0.52210644    -0.11700
C1932       C  0.73621524  0.30822489  0.53475920     0.05300
C1933       C  0.72737070  0.27613968  0.54490948    -0.07000
C1934       C  0.74507465  0.25586430  0.54120522    -0.07700
C1935       C  0.77245036  0.26730868  0.52776681    -0.02300
C1936       C  0.78330667  0.30126203  0.51871452     0.04500
N1937       N  0.81240456  0.31619797  0.50571830     0.67000
H1938       H  0.77227128  0.34549972  0.51418482     0.15900
H1939       H  0.73693157  0.23074035  0.54886804     0.15600
N1940       N  0.70112996  0.26426810  0.55929663     0.74700
O1941       O  0.80435118  0.31336176  0.48914045    -0.38700
O1942       O  0.84494202  0.33931035  0.51077053    -0.38700
O1943       O  0.67095441  0.23388569  0.55796186    -0.39400
O1944       O  0.71135787  0.27975593  0.57453495    -0.39400
C1945       C  0.72091892  0.43382219  0.51114385    -0.11700
C1946       C  0.72794482  0.42307298  0.52795856     0.05300
C1947       C  0.75380809  0.45050022  0.53971539    -0.07000
C1948       C  0.77232139  0.48784886  0.53441879    -0.07700
C1949       C  0.76578141  0.49873432  0.51744435    -0.02300
C1950       C  0.73976760  0.47106931  0.50567109     0.04500
N1951       N  0.73402313  0.47967154  0.48767790     0.67000
H1952       H  0.70175757  0.41276032  0.50178384     0.15900
H1953       H  0.79175556  0.50857017  0.54381444     0.15600
N1954       N  0.76067674  0.44103399  0.55728160     0.74700
O1955       O  0.75977947  0.49007909  0.47630214    -0.38700
O1956       O  0.70148872  0.46870402  0.48217781    -0.38700
O1957       O  0.79105435  0.44249568  0.56052314    -0.39400
O1958       O  0.74028684  0.43906984  0.57025445    -0.39400
C1959       C  0.41690644  0.24664297  0.55297904    -0.11700
C1960       C  0.40951568  0.23806226  0.53453370     0.05300
C1961       C  0.38029995  0.24069023  0.52639929    -0.07000
C1962       C  0.36070955  0.25358464  0.53648320    -0.07700
C1963       C  0.36948267  0.26412457  0.55464168    -0.02300
C1964       C  0.39714165  0.25931073  0.56307475     0.04500
N1965       N  0.40717769  0.26928501  0.58154312     0.67000
H1966       H  0.43886310  0.24428502  0.55957713     0.15900
H1967       H  0.33957831  0.25709840  0.52973963     0.15600
N1968       N  0.37194266  0.23337298  0.50762206     0.74700
O1969       O  0.39269767  0.24465499  0.59357917    -0.38700
O1970       O  0.43544988  0.30010612  0.58533776    -0.38700
O1971       O  0.33941931  0.20955859  0.50287477    -0.39400
O1972       O  0.39345172  0.25670453  0.49620653    -0.39400
C1973       C  0.55887540  0.25521591  0.51134903    -0.11700
C1974       C  0.53508107  0.25942147  0.52330032     0.05300
C1975       C  0.55098051  0.28375552  0.53823492    -0.07000
C1976       C  0.58951343  0.30358457  0.54057655    -0.07700
C1977       C  0.61291197  0.29948467  0.52850062    -0.02300
C1978       C  0.59731766  0.27488313  0.51380303     0.04500
N1979       N  0.62019966  0.27099575  0.50071498     0.67000
H1980       H  0.54778558  0.23705490  0.49969469     0.15900
H1981       H  0.60130805  0.32230301  0.55201116     0.15600
N1982       N  0.52865654  0.28833807  0.55136859     0.74700
O1983       O  0.62461790  0.24321369  0.50143157    -0.38700
O1984       O  0.62866823  0.29010757  0.48646391    -0.38700
O1985       O  0.52066234  0.26988483  0.56581884    -0.39400
O1986       O  0.52415809  0.31604675  0.55037687    -0.39400
C1987       C  0.45456573  0.15193228  0.48194797    -0.11700
C1988       C  0.43099845  0.16516341  0.48743316     0.05300
C1989       C  0.39638612  0.15090894  0.47863412    -0.07000
C1990       C  0.38658075  0.12493358  0.46465696    -0.07700
C1991       C  0.41041442  0.11230108  0.45902438    -0.02300
C1992       C  0.44468447  0.12588255  0.46800252     0.04500
N1993       N  0.46962095  0.11317432  0.46340311     0.67000
H1994       H  0.48113875  0.16175960  0.48855061     0.15900
H1995       H  0.35997517  0.11484812  0.45803470     0.15600
N1996       N  0.37112058  0.16312560  0.48320443     0.74700
O1997       O  0.49587774  0.13191736  0.45264101    -0.38700
O1998       O  0.46986356  0.08788729  0.47267603    -0.38700
O1999       O  0.36927416  0.18667553  0.47321410    -0.39400
O2000       O  0.34468337  0.14360952  0.49374748    -0.39400
C2001       C  0.43583609  0.95688141  0.39726152    -0.11700
C2002       C  0.43681809  0.98770223  0.38904170     0.05300
C2003       C  0.45349924  0.99892886  0.37186698    -0.07000
C2004       C  0.46617863  0.97768766  0.36285657    -0.07700
C2005       C  0.46265331  0.94527029  0.37066237    -0.02300
C2006       C  0.44870312  0.93597692  0.38842602     0.04500
N2007       N  0.44740554  0.90537212  0.39781635     0.67000
H2008       H  0.42423931  0.94829394  0.41067125     0.15900
H2009       H  0.47704180  0.98557534  0.34928545     0.15600
N2010       N  0.45586441  0.03042110  0.36292801     0.74700
O2011       O  0.47589666  0.91012693  0.40612577    -0.38700
O2012       O  0.41638598  0.87732571  0.40141827    -0.38700
O2013       O  0.48601495  0.06097951  0.36322855    -0.39400
O2014       O  0.43065999  0.02596700  0.35202882    -0.39400
C2015       C  0.27519927  0.89551931  0.43426753    -0.11700
C2016       C  0.29523146  0.92782865  0.44471869     0.05300
C2017       C  0.29515132  0.92429321  0.46373615    -0.07000
C2018       C  0.27656199  0.88895476  0.47170468    -0.07700
C2019       C  0.25872261  0.85670430  0.46111100    -0.02300
C2020       C  0.25740152  0.86021200  0.44223551     0.04500
N2021       N  0.23815012  0.82819267  0.43095315     0.67000
H2022       H  0.27462962  0.89747471  0.41965682     0.15900
H2023       H  0.27782768  0.88664586  0.48627248     0.15600
N2024       N  0.31458526  0.95608652  0.47515933     0.74700
O2025       O  0.20366147  0.81386716  0.42870853    -0.38700
O2026       O  0.25627461  0.82012244  0.42013101    -0.38700
O2027       O  0.29664102  0.96827537  0.48352683    -0.39400
O2028       O  0.34724037  0.96608227  0.48009947    -0.39400
C2029       C  0.33177346  0.19915362  0.29561403    -0.11700
C2030       C  0.29863733  0.18878579  0.30476557     0.05300
C2031       C  0.28318975  0.21204284  0.30366257    -0.07000
C2032       C  0.30024450  0.24421726  0.29315172    -0.07700
C2033       C  0.33253982  0.25400084  0.28327556    -0.02300
C2034       C  0.34861618  0.23122743  0.28478797     0.04500
N2035       N  0.38115005  0.23934933  0.27494576     0.67000
H2036       H  0.34372849  0.18131474  0.29615983     0.15900
H2037       H  0.28742832  0.26126995  0.29247180     0.15600
N2038       N  0.25012094  0.20345717  0.31320056     0.74700
O2039       O  0.41244964  0.25740735  0.28248689    -0.38700
O2040       O  0.37809150  0.22244510  0.26033909    -0.38700
O2041       O  0.25264257  0.21883167  0.32822451    -0.39400
O2042       O  0.21945565  0.18784534  0.30494939    -0.39400
C2043       C  0.11673933  0.02662487  0.31872495    -0.11700
C2044       C  0.10392571  0.03982952  0.30466456     0.05300
C2045       C  0.12987051  0.06945704  0.29403281    -0.07000
C2046       C  0.16759566  0.08645673  0.29822247    -0.07700
C2047       C  0.18061593  0.07450170  0.31288497    -0.02300
C2048       C  0.15451855  0.04336048  0.32290686     0.04500
N2049       N  0.16519825  0.02875046  0.33769616     0.67000
H2050       H  0.09702037  0.00385284  0.32708444     0.15900
H2051       H  0.18683749  0.10927197  0.28975435     0.15600
N2052       N  0.11859403  0.08149743  0.27844557     0.74700
O2053       O  0.17459741  0.04632723  0.35244646    -0.38700
O2054       O  0.15542843  0.99472740  0.33761103    -0.38700
O2055       O  0.12144694  0.11312613  0.27842929    -0.39400
O2056       O  0.11453070  0.06483830  0.26365689    -0.39400
C2057       C  0.32339123  0.11797847  0.35551657    -0.11700
C2058       C  0.29302361  0.09134409  0.34537654     0.05300
C2059       C  0.27942084  0.05330326  0.34909361    -0.07000
C2060       C  0.29516454  0.04296142  0.36304638    -0.07700
C2061       C  0.32508739  0.06953038  0.37332069    -0.02300
C2062       C  0.33946162  0.10754014  0.36930127     0.04500
N2063       N  0.36936314  0.13603835  0.37951240     0.67000
H2064       H  0.33426956  0.14736342  0.35309950     0.15900
H2065       H  0.28428411  0.01360716  0.36556721     0.15600
N2066       N  0.25075097  0.02458763  0.33841485     0.74700
O2067       O  0.40185406  0.15115966  0.37333269    -0.38700
O2068       O  0.36239927  0.15118480  0.39247059    -0.38700
O2069       O  0.25809526  0.01913491  0.32259646    -0.39400
O2070       O  0.22239104  0.99923810  0.34614959    -0.39400
loop_ 
_geom_bond_atom_site_label_1 
_geom_bond_atom_site_label_2 
_geom_bond_distance 
_geom_bond_site_symmetry_2 
_ccdc_geom_bond_type 
C1            N2   1.360       .  A
C1            N6   1.350       .  A
C1         C2030   1.481       .  S
N2            C3   1.367       .  A
C3            N4   1.367       .  A
C3         C2058   1.494       .  S
N4            C5   1.363       .  A
C5            N6   1.354       .  A
C5         C2047   1.492       .  S
O7           C10   1.269       .  A
O7          Cd12   2.493       .  S
C8         C2002   1.490   1_545  S
C8           O17   1.265       .  A
C8           O13   1.260   1_545  A
O9           C15   1.270       .  A
O9          Cd12   2.484   1_565  S
C10        C1991   1.487       .  S
C10          O18   1.264       .  A
C11        C2061   1.490       .  S
C11          O16   1.268       .  A
C11          O14   1.264       .  A
Cd12         O19   2.469   1_545  S
Cd12         O18   2.436       .  S
Cd12         O17   2.546       .  S
Cd12         O13   2.442   1_545  S
Cd12         O16   2.476       .  S
Cd12         O14   2.489       .  S
C15        C2016   1.488       .  S
C15          O19   1.265       .  A
C20          N21   1.360       .  A
C20          N25   1.365       .  A
C20        C1960   1.486       .  S
N21          C22   1.356       .  A
C22          N23   1.355       .  A
C22        C1974   1.492       .  S
N23          C24   1.358       .  A
C24          N25   1.365       .  A
C24        C1988   1.495       .  S
C26        C1946   1.483       .  S
C26          C27   1.402       .  A
C26          C31   1.405       .  A
C27          C28   1.401       .  A
C27          H32   1.084       .  S
C28        C1977   1.479       .  S
C28          C29   1.402       .  A
C29          C30   1.406       .  A
C29          H33   1.083       .  S
C30        C1932   1.489       .  S
C30          C31   1.409       .  A
C31          H34   1.084       .  S
C35          N36   1.367       .  A
C35          N40   1.359       .  A
C35        C1890   1.488       .  S
N36          C37   1.369       .  A
C37          N38   1.359       .  A
C37        C1918   1.495       .  S
N38          C39   1.354       .  A
C39          N40   1.353       .  A
C39        C1904   1.485       .  S
O41          C44   1.268       .  A
O41         Cd46   2.494       .  S
C42        C1876   1.489       .  S
C42          O51   1.267       .  A
C42          O47   1.264       .  A
O43          C49   1.263       .  A
O43         Cd46   2.469       .  S
C44        C1921   1.490       .  S
C44          O52   1.265       .  A
C45        C1851   1.488       .  S
C45          O50   1.267       .  A
C45          O48   1.263       .  A
Cd46         O53   2.510       .  S
Cd46         O52   2.456       .  S
Cd46         O51   2.478       .  S
Cd46         O47   2.470       .  S
Cd46         O50   2.478       .  S
Cd46         O48   2.476       .  S
C49        C1862   1.490       .  S
C49          O53   1.265       .  A
C54          N55   1.360       .  A
C54          N59   1.355       .  A
C54        C1834   1.477       .  S
N55          C56   1.366       .  A
C56          N57   1.364       .  A
C56        C1848   1.492       .  S
N57          C58   1.361       .  A
C58          N59   1.357       .  A
C58        C1949   1.488       .  S
C60          N61   1.358       .  A
C60          N65   1.360       .  A
C60        C1792   1.472       .  S
N61          C62   1.357       .  A
C62          N63   1.358       .  A
C62        C1809   1.492       .  S
N63          C64   1.359       .  A
C64          N65   1.361       .  A
C64        C1820   1.494       .  S
O66          C69   1.267       .  A
O66         Cd71   2.478       .  S
C67        C1767   1.490       .  S
C67          O76   1.264       .  A
C67          O72   1.268   1_455  A
O68          C74   1.267       .  A
O68         Cd71   2.518   1_455  S
C69        C1750   1.487       .  S
C69          O77   1.266       .  A
C70        C1823   1.489       .  S
C70          O75   1.267       .  A
C70          O73   1.266       .  A
Cd71         O78   2.416   1_655  S
Cd71         O77   2.464       .  S
Cd71         O76   2.423   1_655  S
Cd71         O72   2.521       .  S
Cd71         O75   2.477       .  S
Cd71         O73   2.459       .  S
C74        C1778   1.487       .  S
C74          O78   1.264       .  A
C79          N80   1.365       .  A
C79          N84   1.360       .  A
C79        C1739   1.486       .  S
N80          C81   1.365       .  A
C81          N82   1.360       .  A
C81        C1753   1.499       .  S
N82          C83   1.355       .  A
C83          N84   1.357       .  A
C83        C1935   1.496       .  S
C85        C2044   1.483       .  S
C85          C86   1.407       .  A
C85          C90   1.403   1_545  A
C86          C87   1.406       .  A
C86          H91   1.083       .  S
C87        C1806   1.486   1_455  S
C87          C88   1.405   1_445  A
C88          C89   1.399   1_655  A
C88          H92   1.084       .  S
C89        C1907   1.476   1_455  S
C89          C90   1.398       .  A
C90          H93   1.084       .  S
C94          N95   1.361       .  A
C94          N99   1.362       .  A
C94        C1879   1.484       .  S
N95          C96   1.360       .  A
C96          N97   1.354       .  A
C96        C1708   1.493       .  S
N97          C98   1.356       .  A
C98          N99   1.360       .  A
C98        C1722   1.486       .  S
O100        C103   1.271       .  A
O100       Cd105   2.477       .  S
C101       C1725   1.485       .  S
C101        O110   1.265       .  A
C101        O106   1.269       .  A
O102        C108   1.270       .  A
O102       Cd105   2.475   1_545  S
C103       C1694   1.484   1_565  S
C103        O111   1.264   1_565  A
C104       C1680   1.485       .  S
C104        O109   1.269       .  A
C104        O107   1.265       .  A
Cd105       O112   2.439   1_565  S
Cd105       O111   2.423   1_565  S
Cd105       O110   2.435       .  S
Cd105       O106   2.480       .  S
Cd105       O109   2.473       .  S
Cd105       O107   2.430       .  S
C108       C1736   1.484       .  S
C108        O112   1.265       .  A
C113        N114   1.366       .  A
C113        N118   1.363       .  A
C113       C1652   1.483       .  S
N114        C115   1.363       .  A
C115        N116   1.356       .  A
C115       C1683   1.495       .  S
N116        C117   1.351       .  A
C117        N118   1.358       .  A
C117       C1666   1.480       .  S
C119        N120   1.363       .  A
C119        N124   1.359       .  A
C119       C1781   1.479       .  S
N120        C121   1.365       .  A
C121        N122   1.358       .  A
C121       C1638   1.500       .  S
N122        C123   1.359       .  A
C123        N124   1.355       .  A
C123       C1627   1.486       .  S
O125        C128   1.266       .  A
O125       Cd130   2.503       .  S
C126       C1596   1.492       .  S
C126        O135   1.265       .  A
C126        O131   1.268       .  A
O127        C133   1.264       .  A
O127       Cd130   2.500       .  S
C128       C1963   1.485       .  S
C128        O136   1.263       .  A
C129       C1641   1.495       .  S
C129        O134   1.270       .  A
C129        O132   1.264       .  A
Cd130       O137   2.497       .  S
Cd130       O136   2.450       .  S
Cd130       O135   2.455       .  S
Cd130       O131   2.501       .  S
Cd130       O134   2.494       .  S
Cd130       O132   2.483       .  S
C133       C1613   1.493       .  S
C133        O137   1.267       .  A
C138        N139   1.363       .  A
C138        N143   1.361       .  A
C138       C1568   1.480       .  S
N139        C140   1.364       .  A
C140        N141   1.360       .  A
C140       C1599   1.498       .  S
N141        C142   1.358       .  A
C142        N143   1.360       .  A
C142       C1582   1.500       .  S
C144        N145   1.362       .  A
C144        N149   1.363       .  A
C144       C2019   1.480       .  S
N145        C146   1.360       .  A
C146        N147   1.359       .  A
C146       C1540   1.499       .  S
N147        C148   1.358       .  A
C148        N149   1.362       .  A
C148       C1554   1.502       .  S
O150        C153   1.269       .  A
O150       Cd155   2.523       .  S
C151       C1557   1.496       .  S
C151        O160   1.265       .  A
C151        O156   1.268       .  A
O152        C158   1.267       .  A
O152       Cd155   2.530   1_655  S
C153       C1526   1.492   1_455  S
C153        O161   1.265       .  A
C154       C1512   1.489       .  S
C154        O159   1.267       .  A
C154        O157   1.266       .  A
Cd155       O162   2.454       .  S
Cd155       O161   2.431       .  S
Cd155       O160   2.474       .  S
Cd155       O156   2.514       .  S
Cd155       O159   2.474       .  S
Cd155       O157   2.502       .  S
C158       C1837   1.494       .  S
C158        O162   1.265   1_655  A
C163        N164   1.356       .  A
C163        N168   1.362       .  A
C163       C1484   1.488       .  S
N164        C165   1.357       .  A
C165        N166   1.362       .  A
C165       C1498   1.498       .  S
N166        C167   1.364       .  A
C167        N168   1.363       .  A
C167       C1515   1.483       .  S
C169       C1669   1.475       .  S
C169        C170   1.399       .  A
C169        C174   1.404   1_565  A
C170        C171   1.401   1_655  A
C170        H175   1.085       .  S
C171       C1501   1.484       .  S
C171        C172   1.407   1_565  A
C172        C173   1.410       .  A
C172        H176   1.082       .  S
C173       C1585   1.494       .  S
C173        C174   1.409   1_455  A
C174        H177   1.083       .  S
C178       C1624   1.476       .  S
C178        C179   1.401       .  A
C178        C183   1.403       .  A
C179        C180   1.401       .  A
C179        H184   1.084       .  S
C180       C1711   1.483       .  S
C180        C181   1.407       .  A
C181        C182   1.405       .  A
C181        H185   1.083       .  S
C182       C1543   1.488       .  S
C182        C183   1.404       .  A
C183        H186   1.083       .  S
C187        N188   1.361       .  A
C187        N192   1.364       .  A
C187       C1529   1.477       .  S
N188        C189   1.357       .  A
C189        N190   1.357       .  A
C189       C1459   1.489       .  S
N190        C191   1.356       .  A
C191        N192   1.365       .  A
C191       C1473   1.499       .  S
O193        C196   1.271       .  A
O193       Cd198   2.462   1_655  S
C194       C1445   1.495       .  S
C194        O203   1.262   1_655  A
C194        O199   1.269       .  A
O195        C201   1.269       .  A
O195       Cd198   2.524       .  S
C196       C1470   1.492       .  S
C196        O204   1.267   1_655  A
C197       C1431   1.484       .  S
C197        O202   1.269       .  A
C197        O200   1.265       .  A
Cd198       O205   2.462       .  S
Cd198       O204   2.479       .  S
Cd198       O203   2.414       .  S
Cd198       O199   2.564   1_455  S
Cd198       O202   2.470       .  S
Cd198       O200   2.480       .  S
C201       C1571   1.489       .  S
C201        O205   1.265       .  A
C206        N207   1.357       .  A
C206        N211   1.366       .  A
C206       C1403   1.504       .  S
N207        C208   1.352       .  A
C208        N209   1.356       .  A
C208       C1414   1.488       .  S
N209        C210   1.362       .  A
C210        N211   1.371       .  A
C210       C1428   1.488       .  S
C212        N213   1.360       .  A
C212        N217   1.364       .  A
C212       C1358   1.479       .  S
N213        C214   1.356       .  A
C214        N215   1.355       .  A
C214       C1375   1.490       .  S
N215        C216   1.357       .  A
C216        N217   1.364       .  A
C216       C1389   1.491       .  S
O218        C221   1.269       .  A
O218       Cd223   2.495   1_565  S
C219       C1487   1.489       .  S
C219        O228   1.265       .  A
C219        O224   1.270       .  A
O220        C226   1.270       .  A
O220       Cd223   2.518       .  S
C221       C1386   1.491       .  S
C221        O229   1.265   1_565  A
C222       C1330   1.489       .  S
C222        O227   1.268       .  A
C222        O225   1.265   1_545  A
Cd223       O230   2.430       .  S
Cd223       O229   2.452       .  S
Cd223       O228   2.423   1_545  S
Cd223       O224   2.527   1_545  S
Cd223       O227   2.490       .  S
Cd223       O225   2.450   1_545  S
C226       C1344   1.493       .  S
C226        O230   1.266       .  A
C231        N232   1.360       .  A
C231        N236   1.363       .  A
C231       C1697   1.478       .  S
N232        C233   1.354       .  A
C233        N234   1.356       .  A
C233       C1316   1.494       .  S
N234        C235   1.359       .  A
C235        N236   1.364       .  A
C235       C1333   1.493       .  S
C237        N238   1.357       .  A
C237        N242   1.363       .  A
C237       C1274   1.494       .  S
N238        C239   1.357       .  A
C239        N240   1.359       .  A
C239       C1288   1.496       .  S
N240        C241   1.363       .  A
C241        N242   1.364       .  A
C241       C1302   1.481       .  S
O243        C246   1.270       .  A
O243       Cd248   2.499       .  S
C244       C1655   1.487       .  S
C244        O253   1.261       .  A
C244        O249   1.267       .  A
O245        C251   1.264       .  A
O245       Cd248   2.477       .  S
C246       C1305   1.491       .  S
C246        O254   1.266       .  A
C247       C1246   1.495       .  S
C247        O252   1.270       .  A
C247        O250   1.264       .  A
Cd248       O255   2.524       .  S
Cd248       O254   2.482       .  S
Cd248       O253   2.442       .  S
Cd248       O249   2.525       .  S
Cd248       O252   2.500       .  S
Cd248       O250   2.491       .  S
C251       C1260   1.490       .  S
C251        O255   1.266       .  A
C256        N257   1.364       .  A
C256        N261   1.360       .  A
C256       C1610   1.491       .  S
N257        C258   1.365       .  A
C258        N259   1.362       .  A
C258       C1249   1.496       .  S
N259        C260   1.361       .  A
C260        N261   1.360       .  A
C260       C1232   1.494       .  S
C262       C1456   1.482       .  S
C262        C263   1.402       .  A
C262        C267   1.403       .  A
C263        C264   1.404       .  A
C263        H268   1.084       .  S
C264       C1235   1.478       .  S
C264        C265   1.403       .  A
C265        C266   1.407       .  A
C265        H269   1.084       .  S
C266       C1319   1.486       .  S
C266        C267   1.404       .  A
C267        H270   1.084       .  S
C271       C1372   1.483       .  S
C271        C272   1.405       .  A
C271        C276   1.404       .  A
C272        C273   1.403       .  A
C272        H277   1.084       .  S
C273       C1417   1.477       .  S
C273        C274   1.401       .  A
C274        C275   1.404       .  A
C274        H278   1.083       .  S
C275       C1291   1.488       .  S
C275        C276   1.406       .  A
C276        H279   1.083       .  S
C280        N281   1.365       .  A
C280        N285   1.359       .  A
C280       C1190   1.487       .  S
N281        C282   1.365       .  A
C282        N283   1.358       .  A
C282       C1221   1.497   1_554  S
N283        C284   1.354       .  A
C284        N285   1.358       .  A
C284       C1204   1.492       .  S
O286        C289   1.264       .  A
O286       Cd291   2.484       .  S
C287       C1218   1.491       .  S
C287        O296   1.264       .  A
C287        O292   1.269       .  A
O288        C294   1.268       .  A
O288       Cd291   2.500       .  S
C289       C1277   1.491       .  S
C289        O297   1.265       .  A
C290       C1165   1.496       .  S
C290        O295   1.270       .  A
C290        O293   1.264       .  A
Cd291       O298   2.483       .  S
Cd291       O297   2.505       .  S
Cd291       O296   2.452       .  S
Cd291       O292   2.501       .  S
Cd291       O295   2.490       .  S
Cd291       O293   2.495       .  S
C294       C1176   1.489       .  S
C294        O298   1.263       .  A
C299        N300   1.365       .  A
C299        N304   1.359       .  A
C299       C1347   1.477       .  S
N300        C301   1.365       .  A
C301        N302   1.358       .  A
C301       C1162   1.498       .  S
N302        C303   1.359       .  A
C303        N304   1.357       .  A
C303       C1151   1.494       .  S
C305        N306   1.361       .  A
C305        N310   1.365       .  A
C305       C1106   1.484       .  S
N306        C307   1.357       .  A
C307        N308   1.354       .  A
C307       C1120   1.483       .  S
N308        C309   1.354       .  A
C309        N310   1.365       .  A
C309       C1134   1.496   1_554  S
O311        C314   1.269       .  A
O311       Cd316   2.488       .  S
C312       C1092   1.493       .  S
C312        O321   1.264       .  A
C312        O317   1.269       .  A
O313        C319   1.268       .  A
O313       Cd316   2.463       .  S
C314       C1078   1.492       .  S
C314        O322   1.266       .  A
C315       C1361   1.491   1_545  S
C315        O320   1.270       .  A
C315        O318   1.265   1_545  A
Cd316       O323   2.485       .  S
Cd316       O322   2.460       .  S
Cd316       O321   2.461   1_545  S
Cd316       O317   2.509   1_545  S
Cd316       O320   2.526       .  S
Cd316       O318   2.417   1_545  S
C319       C1137   1.487       .  S
C319        O323   1.265       .  A
C324        N325   1.356       .  A
C324        N329   1.365       .  A
C324       C1442   1.489       .  S
N325        C326   1.353       .  A
C326        N327   1.355       .  A
C326       C1064   1.493       .  S
N327        C328   1.363       .  A
C328        N329   1.369       .  A
C328       C1081   1.501       .  S
C330       C1050   1.481       .  S
C330        C331   1.403   1_655  A
C330        C335   1.404       .  A
C331        C332   1.404   1_565  A
C331        H336   1.083       .  S
C332       C1148   1.485       .  S
C332        C333   1.404       .  A
C333        C334   1.404   1_455  A
C333        H337   1.084       .  S
C334       C1067   1.486       .  S
C334        C335   1.407   1_545  A
C335        H338   1.084       .  S
C339        N340   1.360       .  A
C339        N344   1.365       .  A
C339       C1008   1.484       .  S
N340        C341   1.358       .  A
C341        N342   1.358       .  A
C341       C1022   1.496       .  S
N342        C343   1.357       .  A
C343        N344   1.365       .  A
C343       C1036   1.495   1_554  S
O345        C348   1.269       .  A
O345       Cd350   2.503       .  S
C346        C994   1.493       .  S
C346        O355   1.265       .  A
C346        O351   1.271       .  A
O347        C353   1.270       .  A
O347       Cd350   2.472       .  S
C348        C980   1.493       .  S
C348        O356   1.266       .  A
C349       C1400   1.491       .  S
C349        O354   1.270   1_455  A
C349        O352   1.264       .  A
Cd350       O357   2.486       .  S
Cd350       O356   2.453       .  S
Cd350       O355   2.451   1_655  S
Cd350       O351   2.500   1_655  S
Cd350       O354   2.534       .  S
Cd350       O352   2.449   1_655  S
C353       C1039   1.489       .  S
C353        O357   1.265       .  A
C358        N359   1.367       .  A
C358        N363   1.361       .  A
C358       C1263   1.495       .  S
N359        C360   1.367       .  A
C360        N361   1.360       .  A
C360        C983   1.501       .  S
N361        C362   1.355       .  A
C362        N363   1.358       .  A
C362       C1053   1.494       .  S
C364       C1207   1.488       .  S
C364        C365   1.407       .  A
C364        C369   1.404       .  A
C365        C366   1.406       .  A
C365        H370   1.083       .  S
C366       C1025   1.485       .  S
C366        C367   1.399       .  A
C367        C368   1.399       .  A
C367        H371   1.083       .  S
C368       C1123   1.471       .  S
C368        C369   1.400       .  A
C369        H372   1.083       .  S
C373        N374   1.360       .  A
C373        N378   1.367       .  A
C373        C938   1.492       .  S
N374        C375   1.356       .  A
C375        N376   1.353       .  A
C375        C955   1.496       .  S
N376        C377   1.361       .  A
C377        N378   1.368       .  A
C377        C969   1.500       .  S
O379        C382   1.270       .  A
O379       Cd384   2.497       .  S
C380        C927   1.494       .  S
C380        O389   1.270       .  A
C380        O385   1.263       .  A
O381        C387   1.267       .  A
O381       Cd384   2.467   1_545  S
C382        C910   1.494       .  S
C382        O390   1.265       .  A
C383       C1795   1.487       .  S
C383        O388   1.268       .  A
C383        O386   1.266       .  A
Cd384       O391   2.454       .  S
Cd384       O390   2.477       .  S
Cd384       O389   2.532       .  S
Cd384       O385   2.447       .  S
Cd384       O388   2.494   1_565  S
Cd384       O386   2.426   1_565  S
C387        C966   1.486       .  S
C387        O391   1.266   1_545  A
C392        N393   1.357       .  A
C392        N397   1.363       .  A
C392       C2005   1.491       .  S
N393        C394   1.356       .  A
C394        N395   1.361       .  A
C394        C896   1.488       .  S
N395        C396   1.363       .  A
C396        N397   1.366       .  A
C396        C913   1.498       .  S
C398        C952   1.489       .  S
C398        C399   1.404       .  A
C398        C403   1.409       .  A
C399        C400   1.401       .  A
C399        H404   1.083       .  S
C400        C885   1.483       .  S
C400        C401   1.404       .  A
C401        C402   1.409       .  A
C401        H405   1.083       .  S
C402        C868   1.491       .  S
C402        C403   1.406       .  A
C403        H406   1.082       .  S
C407        N408   1.360       .  A
C407        N412   1.366       .  A
C407        C843   1.489       .  S
N408        C409   1.356       .  A
C409        N410   1.358       .  A
C409        C882   1.493       .  S
N410        C411   1.360       .  A
C411        N412   1.367       .  A
C411        C854   1.501       .  S
O413        C416   1.269       .  A
O413       Cd418   2.537       .  S
C414        C812   1.493       .  S
C414        O423   1.265       .  A
C414        O419   1.269       .  A
O415        C421   1.268       .  A
O415       Cd418   2.519       .  S
C416        C826   1.494       .  S
C416        O424   1.265       .  A
C417        C857   1.492       .  S
C417        O422   1.268       .  A
C417        O420   1.266       .  A
Cd418       O425   2.440       .  S
Cd418       O424   2.437       .  S
Cd418       O423   2.481       .  S
Cd418       O419   2.488       .  S
Cd418       O422   2.495       .  S
Cd418       O420   2.463       .  S
C421       C2033   1.492       .  S
C421        O425   1.264       .  A
C426        N427   1.358       .  A
C426        N431   1.365       .  A
C426       C1865   1.496       .  S
N427        C428   1.352       .  A
C428        N429   1.358       .  A
C428        C798   1.493       .  S
N429        C430   1.361       .  A
C430        N431   1.369       .  A
C430        C815   1.500       .  S
C432        N433   1.360       .  A
C432        N437   1.365       .  A
C432        C770   1.481       .  S
N433        C434   1.356       .  A
C434        N435   1.354       .  A
C434        C871   1.497       .  S
N435        C436   1.361       .  A
C436        N437   1.366       .  A
C436        C784   1.497       .  S
O438        C441   1.269       .  A
O438       Cd443   2.471   1_655  S
C439       C1893   1.489       .  S
C439        O448   1.269       .  A
C439        O444   1.265   1_655  A
O440        C446   1.270       .  A
O440       Cd443   2.493       .  S
C441        C787   1.487       .  S
C441        O449   1.266   1_655  A
C442        C756   1.494       .  S
C442        O447   1.272       .  A
C442        O445   1.264       .  A
Cd443       O450   2.457       .  S
Cd443       O449   2.442       .  S
Cd443       O448   2.490   1_455  S
Cd443       O444   2.451       .  S
Cd443       O447   2.513       .  S
Cd443       O445   2.438       .  S
C446        C745   1.492       .  S
C446        O450   1.265       .  A
C451        N452   1.360       .  A
C451        N456   1.364       .  A
C451       C1764   1.476       .  S
N452        C453   1.358       .  A
C453        N454   1.354       .  A
C453        C728   1.496       .  S
N454        C455   1.359       .  A
C455        N456   1.364       .  A
C455        C742   1.500       .  S
C457        C731   1.487       .  S
C457        C458   1.410       .  A
C457        C462   1.405       .  A
C458        C459   1.403       .  A
C458        H463   1.084       .  S
C459        C899   1.476       .  S
C459        C460   1.400       .  A
C460        C461   1.400       .  A
C460        H464   1.084       .  S
C461        C801   1.478       .  S
C461        C462   1.402       .  A
C462        H465   1.083       .  S
C466        N467   1.360       .  A
C466        N471   1.365       .  A
C466       C1179   1.489       .  S
N467        C468   1.357       .  A
C468        N469   1.354       .  A
C468        C700   1.470       .  S
N469        C470   1.357       .  A
C470        N471   1.365       .  A
C470        C714   1.494   1_556  S
O472        C475   1.269       .  A
O472       Cd477   2.517   1_655  S
C473        C686   1.485       .  S
C473        O482   1.265       .  A
C473        O478   1.269       .  A
O474        C480   1.269       .  A
O474       Cd477   2.479       .  S
C475       C1109   1.490       .  S
C475        O483   1.264       .  A
C476        C773   1.495   1_455  S
C476        O481   1.270       .  A
C476        O479   1.265   1_455  A
Cd477       O484   2.479       .  S
Cd477       O483   2.428   1_455  S
Cd477       O482   2.429       .  S
Cd477       O478   2.488       .  S
Cd477       O481   2.508       .  S
Cd477       O479   2.457   1_455  S
C480        C717   1.491       .  S
C480        O484   1.265       .  A
C485        N486   1.362       .  A
C485        N490   1.358       .  A
C485        C829   1.477       .  S
N486        C487   1.364       .  A
C487        N488   1.358       .  A
C487        C689   1.487       .  S
N488        C489   1.354       .  A
C489        N490   1.358       .  A
C489        C672   1.491       .  S
C491        N492   1.360       .  A
C491        N496   1.368       .  A
C491       C1095   1.491       .  S
N492        C493   1.355       .  A
C493        N494   1.352       .  A
C493        C644   1.494       .  S
N494        C495   1.360       .  A
C495        N496   1.369       .  A
C495        C658   1.496   1_556  S
O497        C500   1.269       .  A
O497       Cd502   2.500       .  S
C498        C840   1.487       .  S
C498        O507   1.266       .  A
C498        O503   1.263       .  A
O499        C505   1.267       .  A
O499       Cd502   2.488       .  S
C500        C661   1.488       .  S
C500        O508   1.263       .  A
C501        C630   1.486       .  S
C501        O506   1.269       .  A
C501        O504   1.265       .  A
Cd502       O509   2.483       .  S
Cd502       O508   2.446       .  S
Cd502       O507   2.514       .  S
Cd502       O503   2.459       .  S
Cd502       O506   2.467       .  S
Cd502       O504   2.483       .  S
C505       C1011   1.485       .  S
C505        O509   1.263       .  A
C510        N511   1.363       .  A
C510        N515   1.356       .  A
C510        C924   1.496       .  S
N511        C512   1.368       .  A
C512        N513   1.365       .  A
C512        C633   1.489       .  S
N513        C514   1.361       .  A
C514        N515   1.354       .  A
C514        C619   1.498       .  S
C516        N517   1.356       .  A
C516        N521   1.365       .  A
C516        C759   1.481       .  S
N517        C518   1.352       .  A
C518        N519   1.358       .  A
C518        C588   1.489       .  S
N519        C520   1.360       .  A
C520        N521   1.369       .  A
C520        C602   1.500       .  S
O522        C525   1.270       .  A
O522       Cd527   2.494       .  S
C523       C1193   1.491       .  S
C523        O532   1.263       .  A
C523        O528   1.266       .  A
O524        C530   1.266       .  A
O524       Cd527   2.511   1_545  S
C525        C605   1.495       .  S
C525        O533   1.265       .  A
C526        C577   1.492       .  S
C526        O531   1.270       .  A
C526        O529   1.265       .  A
Cd527       O534   2.484       .  S
Cd527       O533   2.490       .  S
Cd527       O532   2.501   1_565  S
Cd527       O528   2.496   1_565  S
Cd527       O531   2.514       .  S
Cd527       O529   2.440       .  S
C530        C941   1.493       .  S
C530        O534   1.263   1_545  A
C535        N536   1.357       .  A
C535        N540   1.362       .  A
C535        C997   1.476       .  S
N536        C537   1.356       .  A
C537        N538   1.358       .  A
C537        C560   1.493       .  S
N538        C539   1.360       .  A
C539        N540   1.365       .  A
C539        C574   1.498   1_556  S
C541        C647   1.483       .  S
C541        C542   1.403       .  A
C541        C546   1.404       .  A
C542        C543   1.403       .  A
C542        H547   1.084       .  S
C543        C703   1.483       .  S
C543        C544   1.403       .  A
C544        C545   1.406       .  A
C544        H548   1.083       .  S
C545        C563   1.483       .  S
C545        C546   1.404       .  A
C546        H549   1.083       .  S
C550        C616   1.486       .  S
C550        C551   1.405   1_655  A
C550        C555   1.405   1_565  A
C551        C552   1.402       .  A
C551        H556   1.083   1_455  S
C552        C591   1.479       .  S
C552        C553   1.401   1_565  A
C553        C554   1.403       .  A
C553        H557   1.084       .  S
C554        C675   1.482       .  S
C554        C555   1.406   1_455  A
C555        H558   1.083       .  S
C559        C560   1.408       .  A
C559        C564   1.400       .  A
C559        H566   1.085       .  S
C560        C561   1.418       .  A
C561        C562   1.401       .  A
C561        N568   1.429       .  S
C562        C563   1.401       .  A
C562        H567   1.086       .  S
C563        C564   1.411       .  A
C564        N565   1.429       .  S
N565        O569   1.262       .  A
N565        O570   1.262   1_556  A
N568        O572   1.262       .  A
N568        O571   1.262       .  A
C573        C574   1.411       .  A
C573        C578   1.404       .  A
C573        H580   1.085       .  S
C574        C575   1.415       .  A
C575        C576   1.402       .  A
C575        N582   1.428       .  S
C576        C577   1.407       .  A
C576        H581   1.085       .  S
C577        C578   1.412       .  A
C578        N579   1.429       .  S
N579        O583   1.262       .  A
N579        O584   1.262       .  A
N582        O586   1.262       .  A
N582        O585   1.262       .  A
C587        C588   1.405       .  A
C587        C592   1.398       .  A
C587        H594   1.086       .  S
C588        C589   1.419       .  A
C589        C590   1.401       .  A
C589        N596   1.429       .  S
C590        C591   1.399       .  A
C590        H595   1.087       .  S
C591        C592   1.410       .  A
C592        N593   1.429       .  S
N593        O597   1.262   1_565  A
N593        O598   1.262       .  A
N596        O600   1.262       .  A
N596        O599   1.262       .  A
C601        C602   1.407       .  A
C601        C606   1.407       .  A
C601        H608   1.084       .  S
C602        C603   1.420       .  A
C603        C604   1.402       .  A
C603        N610   1.429       .  S
C604        C605   1.402       .  A
C604        H609   1.084       .  S
C605        C606   1.416       .  A
C606        N607   1.428       .  S
N607        O611   1.262       .  A
N607        O612   1.262       .  A
N610        O614   1.262       .  A
N610        O613   1.262       .  A
C615        C616   1.402       .  A
C615        C620   1.400       .  A
C615        H622   1.086       .  S
C616        C617   1.408       .  A
C617        C618   1.401       .  A
C617        N624   1.430       .  S
C618        C619   1.413       .  A
C618        H623   1.085       .  S
C619        C620   1.416       .  A
C620        N621   1.426       .  S
N621        O625   1.262       .  A
N621        O626   1.262       .  A
N624        O628   1.262       .  A
N624        O627   1.262   1_565  A
C629        C630   1.400       .  A
C629        C634   1.401       .  A
C629        H636   1.086       .  S
C630        C631   1.414       .  A
C631        C632   1.406       .  A
C631        N638   1.429       .  S
C632        C633   1.405       .  A
C632        H637   1.086       .  S
C633        C634   1.415       .  A
C634        N635   1.429       .  S
N635        O639   1.262       .  A
N635        O640   1.262       .  A
N638        O642   1.262       .  A
N638        O641   1.262       .  A
C643        C644   1.409       .  A
C643        C648   1.402       .  A
C643        H650   1.085       .  S
C644        C645   1.419       .  A
C645        C646   1.398       .  A
C645        N652   1.428       .  S
C646        C647   1.400       .  A
C646        H651   1.086       .  S
C647        C648   1.408       .  A
C648        N649   1.429       .  S
N649        O653   1.262       .  A
N649        O654   1.262       .  A
N652        O656   1.262       .  A
N652        O655   1.262   1_556  A
C657        C658   1.409       .  A
C657        C662   1.398       .  A
C657        H664   1.088       .  S
C658        C659   1.412       .  A
C659        C660   1.405       .  A
C659        N666   1.427       .  S
C660        C661   1.408       .  A
C660        H665   1.087       .  S
C661        C662   1.409       .  A
C662        N663   1.429       .  S
N663        O667   1.262       .  A
N663        O668   1.262       .  A
N666        O670   1.262   1_554  A
N666        O669   1.262       .  A
C671        C672   1.408       .  A
C671        C676   1.400       .  A
C671        H678   1.085       .  S
C672        C673   1.419       .  A
C673        C674   1.397       .  A
C673        N680   1.428       .  S
C674        C675   1.400       .  A
C674        H679   1.085       .  S
C675        C676   1.409       .  A
C676        N677   1.428       .  S
N677        O681   1.262       .  A
N677        O682   1.261       .  A
N680        O684   1.262       .  A
N680        O683   1.262       .  A
C685        C686   1.407       .  A
C685        C690   1.401       .  A
C685        H692   1.085       .  S
C686        C687   1.411       .  A
C687        C688   1.399       .  A
C687        N694   1.429       .  S
C688        C689   1.408       .  A
C688        H693   1.085       .  S
C689        C690   1.411       .  A
C690        N691   1.428       .  S
N691        O695   1.262       .  A
N691        O696   1.262       .  A
N694        O698   1.262       .  A
N694        O697   1.262       .  A
C699        C700   1.400       .  A
C699        C704   1.403       .  A
C699        H706   1.085       .  S
C700        C701   1.407       .  A
C701        C702   1.399       .  A
C701        N708   1.429   1_556  S
C702        C703   1.404       .  A
C702        H707   1.085       .  S
C703        C704   1.412       .  A
C704        N705   1.428       .  S
N705        O709   1.262       .  A
N705        O710   1.262       .  A
N708        O712   1.262       .  A
N708        O711   1.262   1_554  A
C713        C714   1.406       .  A
C713        C718   1.404       .  A
C713        H720   1.085       .  S
C714        C715   1.418       .  A
C715        C716   1.401       .  A
C715        N722   1.429       .  S
C716        C717   1.403       .  A
C716        H721   1.085       .  S
C717        C718   1.415       .  A
C718        N719   1.429       .  S
N719        O723   1.262       .  A
N719        O724   1.262       .  A
N722        O726   1.262       .  A
N722        O725   1.262       .  A
C727        C728   1.409       .  A
C727        C732   1.404       .  A
C727        H734   1.085       .  S
C728        C729   1.419       .  A
C729        C730   1.396       .  A
C729        N736   1.428       .  S
C730        C731   1.400       .  A
C730        H735   1.086       .  S
C731        C732   1.412       .  A
C732        N733   1.430       .  S
N733        O737   1.262       .  A
N733        O738   1.262       .  A
N736        O740   1.262       .  A
N736        O739   1.262       .  A
C741        C742   1.409       .  A
C741        C746   1.397       .  A
C741        H748   1.082       .  S
C742        C743   1.415       .  A
C743        C744   1.407       .  A
C743        N750   1.429       .  S
C744        C745   1.410       .  A
C744        H749   1.085       .  S
C745        C746   1.409       .  A
C746        N747   1.429       .  S
N747        O751   1.262       .  A
N747        O752   1.262       .  A
N750        O754   1.262       .  A
N750        O753   1.262   1_455  A
C755        C756   1.409       .  A
C755        C760   1.409       .  A
C755        H762   1.086       .  S
C756        C757   1.418       .  A
C757        C758   1.398       .  A
C757        N764   1.429       .  S
C758        C759   1.400       .  A
C758        H763   1.087       .  S
C759        C760   1.409       .  A
C760        N761   1.428       .  S
N761        O765   1.262       .  A
N761        O766   1.262       .  A
N764        O768   1.262       .  A
N764        O767   1.262   1_455  A
C769        C770   1.400       .  A
C769        C774   1.397       .  A
C769        H776   1.086       .  S
C770        C771   1.410   1_655  A
C771        C772   1.409       .  A
C771        N778   1.428       .  S
C772        C773   1.410   1_455  A
C772        H777   1.085       .  S
C773        C774   1.416       .  A
C774        N775   1.429       .  S
N775        O779   1.262       .  A
N775        O780   1.262       .  A
N778        O782   1.262       .  A
N778        O781   1.262       .  A
C783        C784   1.409       .  A
C783        C788   1.397       .  A
C783        H790   1.082       .  S
C784        C785   1.414       .  A
C785        C786   1.405   1_655  A
C785        N792   1.428   1_655  S
C786        C787   1.408   1_455  A
C786        H791   1.085       .  S
C787        C788   1.409       .  A
C788        N789   1.429       .  S
N789        O793   1.262       .  A
N789        O794   1.262       .  A
N792        O796   1.262       .  A
N792        O795   1.262       .  A
C797        C798   1.407       .  A
C797        C802   1.399       .  A
C797        H804   1.087       .  S
C798        C799   1.421       .  A
C799        C800   1.399       .  A
C799        N806   1.428       .  S
C800        C801   1.398       .  A
C800        H805   1.088       .  S
C801        C802   1.409       .  A
C802        N803   1.429       .  S
N803        O807   1.262       .  A
N803        O808   1.262       .  A
N806        O810   1.262       .  A
N806        O809   1.262       .  A
C811        C812   1.402       .  A
C811        C816   1.402       .  A
C811        H818   1.086       .  S
C812        C813   1.415       .  A
C813        C814   1.405       .  A
C813        N820   1.428       .  S
C814        C815   1.406       .  A
C814        H819   1.085       .  S
C815        C816   1.421       .  A
C816        N817   1.429       .  S
N817        O821   1.262       .  A
N817        O822   1.262       .  A
N820        O824   1.262       .  A
N820        O823   1.262       .  A
C825        C826   1.407       .  A
C825        C830   1.397       .  A
C825        H832   1.085       .  S
C826        C827   1.418       .  A
C827        C828   1.409       .  A
C827        N834   1.428       .  S
C828        C829   1.402       .  A
C828        H833   1.085       .  S
C829        C830   1.406       .  A
C830        N831   1.429       .  S
N831        O835   1.262       .  A
N831        O836   1.262       .  A
N834        O838   1.262       .  A
N834        O837   1.262       .  A
C839        C840   1.405       .  A
C839        C844   1.404       .  A
C839        H846   1.086       .  S
C840        C841   1.411       .  A
C841        C842   1.402       .  A
C841        N848   1.428       .  S
C842        C843   1.407       .  A
C842        H847   1.086       .  S
C843        C844   1.413       .  A
C844        N845   1.428       .  S
N845        O849   1.262       .  A
N845        O850   1.262       .  A
N848        O852   1.262       .  A
N848        O851   1.262       .  A
C853        C854   1.411       .  A
C853        C858   1.403       .  A
C853        H860   1.085       .  S
C854        C855   1.415       .  A
C855        C856   1.404       .  A
C855        N862   1.426       .  S
C856        C857   1.405       .  A
C856        H861   1.086       .  S
C857        C858   1.412       .  A
C858        N859   1.429       .  S
N859        O863   1.262       .  A
N859        O864   1.262       .  A
N862        O866   1.262       .  A
N862        O865   1.262       .  A
C867        C868   1.402       .  A
C867        C872   1.399       .  A
C867        H874   1.086       .  S
C868        C869   1.413       .  A
C869        C870   1.404       .  A
C869        N876   1.429       .  S
C870        C871   1.409       .  A
C870        H875   1.085       .  S
C871        C872   1.418       .  A
C872        N873   1.428       .  S
N873        O877   1.262       .  A
N873        O878   1.262       .  A
N876        O880   1.262       .  A
N876        O879   1.262       .  A
C881        C882   1.407       .  A
C881        C886   1.400       .  A
C881        H888   1.085       .  S
C882        C883   1.418       .  A
C883        C884   1.404       .  A
C883        N890   1.429       .  S
C884        C885   1.401       .  A
C884        H889   1.086       .  S
C885        C886   1.409       .  A
C886        N887   1.429       .  S
N887        O891   1.262       .  A
N887        O892   1.262       .  A
N890        O894   1.262       .  A
N890        O893   1.262       .  A
C895        C896   1.410       .  A
C895        C900   1.402       .  A
C895        H902   1.087       .  S
C896        C897   1.414       .  A
C897        C898   1.399       .  A
C897        N904   1.430       .  S
C898        C899   1.400       .  A
C898        H903   1.088       .  S
C899        C900   1.406       .  A
C900        N901   1.429       .  S
N901        O905   1.262       .  A
N901        O906   1.262       .  A
N904        O908   1.262       .  A
N904        O907   1.262       .  A
C909        C910   1.403       .  A
C909        C914   1.405       .  A
C909        H916   1.085       .  S
C910        C911   1.416       .  A
C911        C912   1.405       .  A
C911        N918   1.429   1_565  S
C912        C913   1.406       .  A
C912        H917   1.085       .  S
C913        C914   1.419       .  A
C914        N915   1.430       .  S
N915        O919   1.262       .  A
N915        O920   1.262       .  A
N918        O922   1.262       .  A
N918        O921   1.262       .  A
C923        C924   1.406       .  A
C923        C928   1.397       .  A
C923        H930   1.085       .  S
C924        C925   1.415       .  A
C925        C926   1.412       .  A
C925        N932   1.428       .  S
C926        C927   1.408       .  A
C926        H931   1.085       .  S
C927        C928   1.414       .  A
C928        N929   1.430       .  S
N929        O933   1.262       .  A
N929        O934   1.262   1_565  A
N932        O936   1.262       .  A
N932        O935   1.262       .  A
C937        C938   1.406       .  A
C937        C942   1.401       .  A
C937        H944   1.085       .  S
C938        C939   1.413       .  A
C939        C940   1.407       .  A
C939        N946   1.427       .  S
C940        C941   1.407       .  A
C940        H945   1.085   1_545  S
C941        C942   1.413       .  A
C942        N943   1.428       .  S
N943        O947   1.262       .  A
N943        O948   1.262       .  A
N946        O950   1.261   1_545  A
N946        O949   1.262       .  A
C951        C952   1.402       .  A
C951        C956   1.400       .  A
C951        H958   1.085       .  S
C952        C953   1.412       .  A
C953        C954   1.401       .  A
C953        N960   1.429       .  S
C954        C955   1.408       .  A
C954        H959   1.085       .  S
C955        C956   1.419       .  A
C956        N957   1.428       .  S
N957        O961   1.262       .  A
N957        O962   1.262       .  A
N960        O964   1.262       .  A
N960        O963   1.262       .  A
C965        C966   1.405       .  A
C965        C970   1.404       .  A
C965        H972   1.089   1_545  S
C966        C967   1.410       .  A
C967        C968   1.396       .  A
C967        N974   1.429       .  S
C968        C969   1.410       .  A
C968        H973   1.091       .  S
C969        C970   1.416       .  A
C970        N971   1.426       .  S
N971        O975   1.262   1_545  A
N971        O976   1.262   1_545  A
N974        O978   1.262       .  A
N974        O977   1.262       .  A
C979        C980   1.407       .  A
C979        C984   1.405       .  A
C979        H986   1.086       .  S
C980        C981   1.411       .  A
C981        C982   1.402       .  A
C981        N988   1.429       .  S
C982        C983   1.410       .  A
C982        H987   1.086       .  S
C983        C984   1.415       .  A
C984        N985   1.427       .  S
N985        O989   1.262       .  A
N985        O990   1.262       .  A
N988        O992   1.262       .  A
N988        O991   1.262   1_655  A
C993        C994   1.409       .  A
C993        C998   1.406       .  A
C993       H1000   1.085       .  S
C994        C995   1.418       .  A
C995        C996   1.400       .  A
C995       N1002   1.429       .  S
C996        C997   1.399       .  A
C996       H1001   1.086       .  S
C997        C998   1.408       .  A
C998        N999   1.428       .  S
N999       O1003   1.262       .  A
N999       O1004   1.262       .  A
N1002      O1006   1.262       .  A
N1002      O1005   1.262       .  A
C1007      C1008   1.404       .  A
C1007      C1012   1.406       .  A
C1007      H1014   1.086       .  S
C1008      C1009   1.413       .  A
C1009      C1010   1.400       .  A
C1009      N1016   1.429       .  S
C1010      C1011   1.401       .  A
C1010      H1015   1.086       .  S
C1011      C1012   1.415       .  A
C1012      N1013   1.429       .  S
N1013      O1017   1.262       .  A
N1013      O1018   1.262       .  A
N1016      O1020   1.261       .  A
N1016      O1019   1.262       .  A
C1021      C1022   1.408       .  A
C1021      C1026   1.398       .  A
C1021      H1028   1.088   1_554  S
C1022      C1023   1.419       .  A
C1023      C1024   1.399       .  A
C1023      N1030   1.428       .  S
C1024      C1025   1.400       .  A
C1024      H1029   1.087       .  S
C1025      C1026   1.412       .  A
C1026      N1027   1.430   1_554  S
N1027      O1031   1.262       .  A
N1027      O1032   1.262       .  A
N1030      O1034   1.262       .  A
N1030      O1033   1.262       .  A
C1035      C1036   1.407       .  A
C1035      C1040   1.408       .  A
C1035      H1042   1.086       .  S
C1036      C1037   1.418       .  A
C1037      C1038   1.399       .  A
C1037      N1044   1.429       .  S
C1038      C1039   1.400       .  A
C1038      H1043   1.086       .  S
C1039      C1040   1.416       .  A
C1040      N1041   1.429       .  S
N1041      O1045   1.262       .  A
N1041      O1046   1.262       .  A
N1044      O1048   1.262   1_556  A
N1044      O1047   1.262       .  A
C1049      C1050   1.399       .  A
C1049      C1054   1.400       .  A
C1049      H1056   1.086   1_655  S
C1050      C1051   1.407       .  A
C1051      C1052   1.403       .  A
C1051      N1058   1.427       .  S
C1052      C1053   1.409       .  A
C1052      H1057   1.085       .  S
C1053      C1054   1.419       .  A
C1054      N1055   1.428       .  S
N1055      O1059   1.262       .  A
N1055      O1060   1.262       .  A
N1058      O1062   1.261       .  A
N1058      O1061   1.262       .  A
C1063      C1064   1.409       .  A
C1063      C1068   1.400       .  A
C1063      H1070   1.085       .  S
C1064      C1065   1.417       .  A
C1065      C1066   1.401       .  A
C1065      N1072   1.429       .  S
C1066      C1067   1.403       .  A
C1066      H1071   1.086       .  S
C1067      C1068   1.409       .  A
C1068      N1069   1.429       .  S
N1069      O1073   1.262       .  A
N1069      O1074   1.262   1_655  A
N1072      O1076   1.262       .  A
N1072      O1075   1.262       .  A
C1077      C1078   1.408       .  A
C1077      C1082   1.405       .  A
C1077      H1084   1.086       .  S
C1078      C1079   1.411       .  A
C1079      C1080   1.400       .  A
C1079      N1086   1.429       .  S
C1080      C1081   1.410       .  A
C1080      H1085   1.085       .  S
C1081      C1082   1.416       .  A
C1082      N1083   1.428       .  S
N1083      O1087   1.262       .  A
N1083      O1088   1.262       .  A
N1086      O1090   1.262       .  A
N1086      O1089   1.262   1_545  A
C1091      C1092   1.408       .  A
C1091      C1096   1.409       .  A
C1091      H1098   1.085       .  S
C1092      C1093   1.415       .  A
C1093      C1094   1.398       .  A
C1093      N1100   1.430       .  S
C1094      C1095   1.405       .  A
C1094      H1099   1.086       .  S
C1095      C1096   1.412       .  A
C1096      N1097   1.428       .  S
N1097      O1101   1.262       .  A
N1097      O1102   1.262       .  A
N1100      O1104   1.262       .  A
N1100      O1103   1.262       .  A
C1105      C1106   1.405       .  A
C1105      C1110   1.406       .  A
C1105      H1112   1.085       .  S
C1106      C1107   1.412       .  A
C1107      C1108   1.398       .  A
C1107      N1114   1.430       .  S
C1108      C1109   1.405       .  A
C1108      H1113   1.085       .  S
C1109      C1110   1.414       .  A
C1110      N1111   1.428       .  S
N1111      O1115   1.262       .  A
N1111      O1116   1.262       .  A
N1114      O1118   1.262       .  A
N1114      O1117   1.262       .  A
C1119      C1120   1.406       .  A
C1119      C1124   1.393       .  A
C1119      H1126   1.090   1_554  S
C1120      C1121   1.415       .  A
C1121      C1122   1.400       .  A
C1121      N1128   1.430       .  S
C1122      C1123   1.400       .  A
C1122      H1127   1.089       .  S
C1123      C1124   1.405       .  A
C1124      N1125   1.429   1_554  S
N1125      O1129   1.262       .  A
N1125      O1130   1.262       .  A
N1128      O1132   1.262       .  A
N1128      O1131   1.262       .  A
C1133      C1134   1.407       .  A
C1133      C1138   1.406       .  A
C1133      H1140   1.085       .  S
C1134      C1135   1.421       .  A
C1135      C1136   1.397       .  A
C1135      N1142   1.429       .  S
C1136      C1137   1.399       .  A
C1136      H1141   1.086       .  S
C1137      C1138   1.414       .  A
C1138      N1139   1.428       .  S
N1139      O1143   1.262       .  A
N1139      O1144   1.262       .  A
N1142      O1146   1.262       .  A
N1142      O1145   1.262       .  A
C1147      C1148   1.402       .  A
C1147      C1152   1.403       .  A
C1147      H1154   1.099       .  S
C1148      C1149   1.412       .  A
C1149      C1150   1.391       .  A
C1149      N1156   1.429       .  S
C1150      C1151   1.401       .  A
C1150      H1155   1.124       .  S
C1151      C1152   1.421       .  A
C1152      N1153   1.429       .  S
N1153      O1157   1.262       .  A
N1153      O1158   1.262       .  A
N1156      O1160   1.262       .  A
N1156      O1159   1.262       .  A
C1161      C1162   1.406       .  A
C1161      C1166   1.408       .  A
C1161      H1168   1.084       .  S
C1162      C1163   1.419       .  A
C1163      C1164   1.401       .  A
C1163      N1170   1.429       .  S
C1164      C1165   1.401       .  A
C1164      H1169   1.084       .  S
C1165      C1166   1.418       .  A
C1166      N1167   1.428       .  S
N1167      O1171   1.262       .  A
N1167      O1172   1.262       .  A
N1170      O1174   1.262       .  A
N1170      O1173   1.262       .  A
C1175      C1176   1.404       .  A
C1175      C1180   1.403       .  A
C1175      H1182   1.085       .  S
C1176      C1177   1.415       .  A
C1177      C1178   1.405       .  A
C1177      N1184   1.429       .  S
C1178      C1179   1.405       .  A
C1178      H1183   1.085       .  S
C1179      C1180   1.414       .  A
C1180      N1181   1.429       .  S
N1181      O1185   1.262       .  A
N1181      O1186   1.262       .  A
N1184      O1188   1.262       .  A
N1184      O1187   1.262       .  A
C1189      C1190   1.404       .  A
C1189      C1194   1.406       .  A
C1189      H1196   1.086       .  S
C1190      C1191   1.414       .  A
C1191      C1192   1.402       .  A
C1191      N1198   1.429       .  S
C1192      C1193   1.404       .  A
C1192      H1197   1.086       .  S
C1193      C1194   1.416       .  A
C1194      N1195   1.428       .  S
N1195      O1199   1.262       .  A
N1195      O1200   1.262       .  A
N1198      O1202   1.262       .  A
N1198      O1201   1.262       .  A
C1203      C1204   1.407       .  A
C1203      C1208   1.400       .  A
C1203      H1210   1.084       .  S
C1204      C1205   1.418       .  A
C1205      C1206   1.397       .  A
C1205      N1212   1.428   1_554  S
C1206      C1207   1.402       .  A
C1206      H1211   1.085       .  S
C1207      C1208   1.413       .  A
C1208      N1209   1.430       .  S
N1209      O1213   1.262       .  A
N1209      O1214   1.262       .  A
N1212      O1216   1.262       .  A
N1212      O1215   1.262   1_556  A
C1217      C1218   1.408       .  A
C1217      C1222   1.404       .  A
C1217      H1224   1.085       .  S
C1218      C1219   1.411       .  A
C1219      C1220   1.400       .  A
C1219      N1226   1.429       .  S
C1220      C1221   1.410       .  A
C1220      H1225   1.084       .  S
C1221      C1222   1.414       .  A
C1222      N1223   1.428       .  S
N1223      O1227   1.262       .  A
N1223      O1228   1.262       .  A
N1226      O1230   1.262       .  A
N1226      O1229   1.262       .  A
C1231      C1232   1.410       .  A
C1231      C1236   1.405       .  A
C1231      H1238   1.085       .  S
C1232      C1233   1.418       .  A
C1233      C1234   1.399       .  A
C1233      N1240   1.429       .  S
C1234      C1235   1.398       .  A
C1234      H1239   1.087       .  S
C1235      C1236   1.407       .  A
C1236      N1237   1.429       .  S
N1237      O1241   1.262       .  A
N1237      O1242   1.262       .  A
N1240      O1244   1.262       .  A
N1240      O1243   1.262       .  A
C1245      C1246   1.403       .  A
C1245      C1250   1.405       .  A
C1245      H1252   1.085       .  S
C1246      C1247   1.417       .  A
C1247      C1248   1.407       .  A
C1247      N1254   1.429       .  S
C1248      C1249   1.406       .  A
C1248      H1253   1.085       .  S
C1249      C1250   1.417       .  A
C1250      N1251   1.431       .  S
N1251      O1255   1.262       .  A
N1251      O1256   1.262       .  A
N1254      O1258   1.262       .  A
N1254      O1257   1.262       .  A
C1259      C1260   1.404       .  A
C1259      C1264   1.406       .  A
C1259      H1266   1.085       .  S
C1260      C1261   1.413       .  A
C1261      C1262   1.405       .  A
C1261      N1268   1.429       .  S
C1262      C1263   1.408       .  A
C1262      H1267   1.085       .  S
C1263      C1264   1.414       .  A
C1264      N1265   1.428       .  S
N1265      O1269   1.262       .  A
N1265      O1270   1.262       .  A
N1268      O1272   1.262       .  A
N1268      O1271   1.261       .  A
C1273      C1274   1.408       .  A
C1273      C1278   1.401       .  A
C1273      H1280   1.085       .  S
C1274      C1275   1.413       .  A
C1275      C1276   1.405       .  A
C1275      N1282   1.428       .  S
C1276      C1277   1.407       .  A
C1276      H1281   1.085       .  S
C1277      C1278   1.413       .  A
C1278      N1279   1.429       .  S
N1279      O1283   1.262       .  A
N1279      O1284   1.262       .  A
N1282      O1286   1.262       .  A
N1282      O1285   1.262       .  A
C1287      C1288   1.409       .  A
C1287      C1292   1.398       .  A
C1287      H1294   1.085       .  S
C1288      C1289   1.417       .  A
C1289      C1290   1.402       .  A
C1289      N1296   1.429       .  S
C1290      C1291   1.404       .  A
C1290      H1295   1.085       .  S
C1291      C1292   1.410       .  A
C1292      N1293   1.430       .  S
N1293      O1297   1.262       .  A
N1293      O1298   1.262       .  A
N1296      O1300   1.262       .  A
N1296      O1299   1.262       .  A
C1301      C1302   1.401       .  A
C1301      C1306   1.405       .  A
C1301      H1308   1.084       .  S
C1302      C1303   1.408       .  A
C1303      C1304   1.405       .  A
C1303      N1310   1.430       .  S
C1304      C1305   1.406       .  A
C1304      H1309   1.083       .  S
C1305      C1306   1.416       .  A
C1306      N1307   1.429       .  S
N1307      O1311   1.262       .  A
N1307      O1312   1.262       .  A
N1310      O1314   1.262       .  A
N1310      O1313   1.261       .  A
C1315      C1316   1.408       .  A
C1315      C1320   1.398       .  A
C1315      H1322   1.086       .  S
C1316      C1317   1.418       .  A
C1317      C1318   1.403       .  A
C1317      N1324   1.429       .  S
C1318      C1319   1.403       .  A
C1318      H1323   1.086       .  S
C1319      C1320   1.410       .  A
C1320      N1321   1.429       .  S
N1321      O1325   1.262       .  A
N1321      O1326   1.262       .  A
N1324      O1328   1.262       .  A
N1324      O1327   1.262       .  A
C1329      C1330   1.407       .  A
C1329      C1334   1.403       .  A
C1329      H1336   1.086   1_545  S
C1330      C1331   1.411       .  A
C1331      C1332   1.399       .  A
C1331      N1338   1.429       .  S
C1332      C1333   1.409       .  A
C1332      H1337   1.086       .  S
C1333      C1334   1.413       .  A
C1334      N1335   1.427   1_545  S
N1335      O1339   1.262       .  A
N1335      O1340   1.262       .  A
N1338      O1342   1.262       .  A
N1338      O1341   1.262       .  A
C1343      C1344   1.407       .  A
C1343      C1348   1.398       .  A
C1343      H1350   1.085       .  S
C1344      C1345   1.417       .  A
C1345      C1346   1.408       .  A
C1345      N1352   1.428       .  S
C1346      C1347   1.403       .  A
C1346      H1351   1.086       .  S
C1347      C1348   1.406       .  A
C1348      N1349   1.429       .  S
N1349      O1353   1.262       .  A
N1349      O1354   1.262       .  A
N1352      O1356   1.262       .  A
N1352      O1355   1.262       .  A
C1357      C1358   1.404       .  A
C1357      C1362   1.409   1_565  A
C1357      H1364   1.085       .  S
C1358      C1359   1.408       .  A
C1359      C1360   1.395       .  A
C1359      N1366   1.429       .  S
C1360      C1361   1.406       .  A
C1360      H1365   1.085       .  S
C1361      C1362   1.417   1_565  A
C1362      N1363   1.428       .  S
N1363      O1367   1.262       .  A
N1363      O1368   1.262       .  A
N1366      O1370   1.261       .  A
N1366      O1369   1.262       .  A
C1371      C1372   1.402       .  A
C1371      C1376   1.403       .  A
C1371      H1378   1.086       .  S
C1372      C1373   1.410       .  A
C1373      C1374   1.398       .  A
C1373      N1380   1.430       .  S
C1374      C1375   1.407       .  A
C1374      H1379   1.085       .  S
C1375      C1376   1.416       .  A
C1376      N1377   1.429       .  S
N1377      O1381   1.262       .  A
N1377      O1382   1.262       .  A
N1380      O1384   1.262       .  A
N1380      O1383   1.262       .  A
C1385      C1386   1.409       .  A
C1385      C1390   1.404       .  A
C1385      H1392   1.085   1_565  S
C1386      C1387   1.412       .  A
C1387      C1388   1.400       .  A
C1387      N1394   1.429       .  S
C1388      C1389   1.408       .  A
C1388      H1393   1.085       .  S
C1389      C1390   1.412       .  A
C1390      N1391   1.428   1_565  S
N1391      O1395   1.262       .  A
N1391      O1396   1.262       .  A
N1394      O1398   1.262       .  A
N1394      O1397   1.262       .  A
C1399      C1400   1.408       .  A
C1399      C1404   1.414       .  A
C1399      H1406   1.085   1_455  S
C1400      C1401   1.410       .  A
C1401      C1402   1.395       .  A
C1401      N1408   1.430       .  S
C1402      C1403   1.410       .  A
C1402      H1407   1.084       .  S
C1403      C1404   1.418       .  A
C1404      N1405   1.428       .  S
N1405      O1409   1.262   1_455  A
N1405      O1410   1.262       .  A
N1408      O1412   1.262       .  A
N1408      O1411   1.262       .  A
C1413      C1414   1.409       .  A
C1413      C1418   1.399       .  A
C1413      H1420   1.085       .  S
C1414      C1415   1.416       .  A
C1415      C1416   1.401       .  A
C1415      N1422   1.429       .  S
C1416      C1417   1.401       .  A
C1416      H1421   1.086       .  S
C1417      C1418   1.406       .  A
C1418      N1419   1.429       .  S
N1419      O1423   1.262       .  A
N1419      O1424   1.262       .  A
N1422      O1426   1.262       .  A
N1422      O1425   1.262       .  A
C1427      C1428   1.404       .  A
C1427      C1432   1.406       .  A
C1427      H1434   1.085       .  S
C1428      C1429   1.415       .  A
C1429      C1430   1.400       .  A
C1429      N1436   1.430       .  S
C1430      C1431   1.401       .  A
C1430      H1435   1.086       .  S
C1431      C1432   1.414       .  A
C1432      N1433   1.428       .  S
N1433      O1437   1.262   1_455  A
N1433      O1438   1.262       .  A
N1436      O1440   1.261       .  A
N1436      O1439   1.262       .  A
C1441      C1442   1.407       .  A
C1441      C1446   1.413       .  A
C1441      H1448   1.085       .  S
C1442      C1443   1.413       .  A
C1443      C1444   1.394       .  A
C1443      N1450   1.430       .  S
C1444      C1445   1.404       .  A
C1444      H1449   1.085   1_655  S
C1445      C1446   1.417       .  A
C1446      N1447   1.428       .  S
N1447      O1451   1.262       .  A
N1447      O1452   1.262       .  A
N1450      O1454   1.262   1_655  A
N1450      O1453   1.262   1_655  A
C1455      C1456   1.404       .  A
C1455      C1460   1.405       .  A
C1455      H1462   1.086       .  S
C1456      C1457   1.408       .  A
C1457      C1458   1.395       .  A
C1457      N1464   1.429       .  S
C1458      C1459   1.405       .  A
C1458      H1463   1.085       .  S
C1459      C1460   1.416       .  A
C1460      N1461   1.429       .  S
N1461      O1465   1.262       .  A
N1461      O1466   1.262       .  A
N1464      O1468   1.262       .  A
N1464      O1467   1.262       .  A
C1469      C1470   1.401       .  A
C1469      C1474   1.399       .  A
C1469      H1476   1.085       .  S
C1470      C1471   1.416       .  A
C1471      C1472   1.407       .  A
C1471      N1478   1.429   1_655  S
C1472      C1473   1.407       .  A
C1472      H1477   1.085       .  S
C1473      C1474   1.421       .  A
C1474      N1475   1.429       .  S
N1475      O1479   1.262       .  A
N1475      O1480   1.262       .  A
N1478      O1482   1.262       .  A
N1478      O1481   1.262       .  A
C1483      C1484   1.407       .  A
C1483      C1488   1.409       .  A
C1483      H1490   1.085       .  S
C1484      C1485   1.414       .  A
C1485      C1486   1.396       .  A
C1485      N1492   1.430       .  S
C1486      C1487   1.403       .  A
C1486      H1491   1.085       .  S
C1487      C1488   1.414       .  A
C1488      N1489   1.428       .  S
N1489      O1493   1.262       .  A
N1489      O1494   1.262       .  A
N1492      O1496   1.262       .  A
N1492      O1495   1.262       .  A
C1497      C1498   1.413       .  A
C1497      C1502   1.402       .  A
C1497      H1504   1.080       .  S
C1498      C1499   1.417       .  A
C1499      C1500   1.401       .  A
C1499      N1506   1.427       .  S
C1500      C1501   1.403       .  A
C1500      H1505   1.083       .  S
C1501      C1502   1.405       .  A
C1502      N1503   1.429       .  S
N1503      O1507   1.262       .  A
N1503      O1508   1.262   1_565  A
N1506      O1510   1.261       .  A
N1506      O1509   1.262       .  A
C1511      C1512   1.404       .  A
C1511      C1516   1.401       .  A
C1511      H1518   1.085       .  S
C1512      C1513   1.416       .  A
C1513      C1514   1.407       .  A
C1513      N1520   1.429       .  S
C1514      C1515   1.403       .  A
C1514      H1519   1.085       .  S
C1515      C1516   1.410       .  A
C1516      N1517   1.430       .  S
N1517      O1521   1.262       .  A
N1517      O1522   1.261       .  A
N1520      O1524   1.262       .  A
N1520      O1523   1.262       .  A
C1525      C1526   1.407       .  A
C1525      C1530   1.397       .  A
C1525      H1532   1.085       .  S
C1526      C1527   1.417   1_655  A
C1527      C1528   1.408   1_455  A
C1527      N1534   1.428       .  S
C1528      C1529   1.403       .  A
C1528      H1533   1.085       .  S
C1529      C1530   1.406       .  A
C1530      N1531   1.429       .  S
N1531      O1535   1.262       .  A
N1531      O1536   1.262       .  A
N1534      O1538   1.262       .  A
N1534      O1537   1.262       .  A
C1539      C1540   1.409       .  A
C1539      C1544   1.399       .  A
C1539      H1546   1.085       .  S
C1540      C1541   1.418       .  A
C1541      C1542   1.404       .  A
C1541      N1548   1.427       .  S
C1542      C1543   1.403       .  A
C1542      H1547   1.086       .  S
C1543      C1544   1.411       .  A
C1544      N1545   1.430       .  S
N1545      O1549   1.262       .  A
N1545      O1550   1.262       .  A
N1548      O1552   1.261       .  A
N1548      O1551   1.262       .  A
C1553      C1554   1.410       .  A
C1553      C1558   1.403       .  A
C1553      H1560   1.085       .  S
C1554      C1555   1.416       .  A
C1555      C1556   1.406       .  A
C1555      N1562   1.429       .  S
C1556      C1557   1.408       .  A
C1556      H1561   1.085       .  S
C1557      C1558   1.413       .  A
C1558      N1559   1.429       .  S
N1559      O1563   1.262       .  A
N1559      O1564   1.262       .  A
N1562      O1566   1.262       .  A
N1562      O1565   1.262       .  A
C1567      C1568   1.403       .  A
C1567      C1572   1.406       .  A
C1567      H1574   1.085       .  S
C1568      C1569   1.408       .  A
C1569      C1570   1.404       .  A
C1569      N1576   1.428       .  S
C1570      C1571   1.406       .  A
C1570      H1575   1.085       .  S
C1571      C1572   1.414       .  A
C1572      N1573   1.428       .  S
N1573      O1577   1.262       .  A
N1573      O1578   1.262       .  A
N1576      O1580   1.262       .  A
N1576      O1579   1.262       .  A
C1581      C1582   1.409       .  A
C1581      C1586   1.402       .  A
C1581      H1588   1.085       .  S
C1582      C1583   1.418       .  A
C1583      C1584   1.404       .  A
C1583      N1590   1.428       .  S
C1584      C1585   1.404       .  A
C1584      H1589   1.085       .  S
C1585      C1586   1.413       .  A
C1586      N1587   1.430       .  S
N1587      O1591   1.262       .  A
N1587      O1592   1.262       .  A
N1590      O1594   1.262       .  A
N1590      O1593   1.262       .  A
C1595      C1596   1.407       .  A
C1595      C1600   1.403       .  A
C1595      H1602   1.085       .  S
C1596      C1597   1.412       .  A
C1597      C1598   1.402       .  A
C1597      N1604   1.429       .  S
C1598      C1599   1.410       .  A
C1598      H1603   1.085       .  S
C1599      C1600   1.415       .  A
C1600      N1601   1.428       .  S
N1601      O1605   1.262       .  A
N1601      O1606   1.262       .  A
N1604      O1608   1.262       .  A
N1604      O1607   1.262       .  A
C1609      C1610   1.405       .  A
C1609      C1614   1.407       .  A
C1609      H1616   1.085       .  S
C1610      C1611   1.414       .  A
C1611      C1612   1.404       .  A
C1611      N1618   1.429       .  S
C1612      C1613   1.405       .  A
C1612      H1617   1.085       .  S
C1613      C1614   1.415       .  A
C1614      N1615   1.428       .  S
N1615      O1619   1.262       .  A
N1615      O1620   1.262       .  A
N1618      O1622   1.262       .  A
N1618      O1621   1.262       .  A
C1623      C1624   1.400       .  A
C1623      C1628   1.402       .  A
C1623      H1630   1.087       .  S
C1624      C1625   1.408       .  A
C1625      C1626   1.394       .  A
C1625      N1632   1.429       .  S
C1626      C1627   1.404       .  A
C1626      H1631   1.086       .  S
C1627      C1628   1.417       .  A
C1628      N1629   1.429       .  S
N1629      O1633   1.262       .  A
N1629      O1634   1.262       .  A
N1632      O1636   1.262       .  A
N1632      O1635   1.262       .  A
C1637      C1638   1.406       .  A
C1637      C1642   1.405       .  A
C1637      H1644   1.086       .  S
C1638      C1639   1.420       .  A
C1639      C1640   1.401       .  A
C1639      N1646   1.428       .  S
C1640      C1641   1.402       .  A
C1640      H1645   1.086       .  S
C1641      C1642   1.417       .  A
C1642      N1643   1.429       .  S
N1643      O1647   1.262       .  A
N1643      O1648   1.262       .  A
N1646      O1650   1.262       .  A
N1646      O1649   1.262       .  A
C1651      C1652   1.405       .  A
C1651      C1656   1.404       .  A
C1651      H1658   1.085       .  S
C1652      C1653   1.410       .  A
C1653      C1654   1.401       .  A
C1653      N1660   1.428       .  S
C1654      C1655   1.406       .  A
C1654      H1659   1.085       .  S
C1655      C1656   1.413       .  A
C1656      N1657   1.428       .  S
N1657      O1661   1.261       .  A
N1657      O1662   1.262       .  A
N1660      O1664   1.261       .  A
N1660      O1663   1.262       .  A
C1665      C1666   1.404       .  A
C1665      C1670   1.404       .  A
C1665      H1672   1.088       .  S
C1666      C1667   1.414       .  A
C1667      C1668   1.396       .  A
C1667      N1674   1.430       .  S
C1668      C1669   1.397       .  A
C1668      H1673   1.088       .  S
C1669      C1670   1.409       .  A
C1670      N1671   1.427       .  S
N1671      O1675   1.262       .  A
N1671      O1676   1.261       .  A
N1674      O1678   1.262       .  A
N1674      O1677   1.262       .  A
C1679      C1680   1.406       .  A
C1679      C1684   1.402       .  A
C1679      H1686   1.086       .  S
C1680      C1681   1.409       .  A
C1681      C1682   1.397       .  A
C1681      N1688   1.429       .  S
C1682      C1683   1.410       .  A
C1682      H1687   1.085       .  S
C1683      C1684   1.414       .  A
C1684      N1685   1.428       .  S
N1685      O1689   1.262       .  A
N1685      O1690   1.262       .  A
N1688      O1692   1.262       .  A
N1688      O1691   1.262       .  A
C1693      C1694   1.406   1_565  A
C1693      C1698   1.404   1_565  A
C1693      H1700   1.087       .  S
C1694      C1695   1.415       .  A
C1695      C1696   1.395       .  A
C1695      N1702   1.429       .  S
C1696      C1697   1.401       .  A
C1696      H1701   1.087       .  S
C1697      C1698   1.410       .  A
C1698      N1699   1.428   1_545  S
N1699      O1703   1.262   1_565  A
N1699      O1704   1.262       .  A
N1702      O1706   1.262       .  A
N1702      O1705   1.262       .  A
C1707      C1708   1.409       .  A
C1707      C1712   1.402       .  A
C1707      H1714   1.085       .  S
C1708      C1709   1.420       .  A
C1709      C1710   1.395       .  A
C1709      N1716   1.428       .  S
C1710      C1711   1.399       .  A
C1710      H1715   1.086       .  S
C1711      C1712   1.411       .  A
C1712      N1713   1.430       .  S
N1713      O1717   1.262       .  A
N1713      O1718   1.262       .  A
N1716      O1720   1.262       .  A
N1716      O1719   1.262       .  A
C1721      C1722   1.406       .  A
C1721      C1726   1.398       .  A
C1721      H1728   1.085       .  S
C1722      C1723   1.411       .  A
C1723      C1724   1.401       .  A
C1723      N1730   1.428       .  S
C1724      C1725   1.407       .  A
C1724      H1729   1.086       .  S
C1725      C1726   1.411       .  A
C1726      N1727   1.429       .  S
N1727      O1731   1.262       .  A
N1727      O1732   1.262       .  A
N1730      O1734   1.262       .  A
N1730      O1733   1.262       .  A
C1735      C1736   1.404       .  A
C1735      C1740   1.404       .  A
C1735      H1742   1.085       .  S
C1736      C1737   1.414       .  A
C1737      C1738   1.399       .  A
C1737      N1744   1.430       .  S
C1738      C1739   1.405       .  A
C1738      H1743   1.086       .  S
C1739      C1740   1.413       .  A
C1740      N1741   1.429       .  S
N1741      O1745   1.262       .  A
N1741      O1746   1.262       .  A
N1744      O1748   1.262       .  A
N1744      O1747   1.262       .  A
C1749      C1750   1.405       .  A
C1749      C1754   1.405       .  A
C1749      H1756   1.086       .  S
C1750      C1751   1.410       .  A
C1751      C1752   1.397       .  A
C1751      N1758   1.429       .  S
C1752      C1753   1.409       .  A
C1752      H1757   1.086       .  S
C1753      C1754   1.417       .  A
C1754      N1755   1.428       .  S
N1755      O1759   1.262       .  A
N1755      O1760   1.262       .  A
N1758      O1762   1.262       .  A
N1758      O1761   1.262       .  A
C1763      C1764   1.403       .  A
C1763      C1768   1.408       .  A
C1763      H1770   1.085       .  S
C1764      C1765   1.406       .  A
C1765      C1766   1.396       .  A
C1765      N1772   1.429       .  S
C1766      C1767   1.406       .  A
C1766      H1771   1.085       .  S
C1767      C1768   1.417       .  A
C1768      N1769   1.429   1_455  S
N1769      O1773   1.262   1_655  A
N1769      O1774   1.262       .  A
N1772      O1776   1.262       .  A
N1772      O1775   1.262       .  A
C1777      C1778   1.404       .  A
C1777      C1782   1.394       .  A
C1777      H1784   1.085       .  S
C1778      C1779   1.416       .  A
C1779      C1780   1.407       .  A
C1779      N1786   1.428       .  S
C1780      C1781   1.404       .  A
C1780      H1785   1.085       .  S
C1781      C1782   1.410       .  A
C1782      N1783   1.430       .  S
N1783      O1787   1.261       .  A
N1783      O1788   1.262       .  A
N1786      O1790   1.262       .  A
N1786      O1789   1.262       .  A
C1791      C1792   1.401       .  A
C1791      C1796   1.404       .  A
C1791      H1798   1.085       .  S
C1792      C1793   1.407       .  A
C1793      C1794   1.397       .  A
C1793      N1800   1.429       .  S
C1794      C1795   1.406       .  A
C1794      H1799   1.085       .  S
C1795      C1796   1.416       .  A
C1796      N1797   1.428       .  S
N1797      O1801   1.262       .  A
N1797      O1802   1.262       .  A
N1800      O1804   1.261       .  A
N1800      O1803   1.262       .  A
C1805      C1806   1.403       .  A
C1805      C1810   1.399       .  A
C1805      H1812   1.086       .  S
C1806      C1807   1.411   1_655  A
C1807      C1808   1.400   1_455  A
C1807      N1814   1.429       .  S
C1808      C1809   1.408       .  A
C1808      H1813   1.086       .  S
C1809      C1810   1.417       .  A
C1810      N1811   1.429       .  S
N1811      O1815   1.262       .  A
N1811      O1816   1.262       .  A
N1814      O1818   1.262       .  A
N1814      O1817   1.262       .  A
C1819      C1820   1.408       .  A
C1819      C1824   1.399       .  A
C1819      H1826   1.085       .  S
C1820      C1821   1.415       .  A
C1821      C1822   1.403       .  A
C1821      N1828   1.429       .  S
C1822      C1823   1.406       .  A
C1822      H1827   1.085       .  S
C1823      C1824   1.412       .  A
C1824      N1825   1.429   1_655  S
N1825      O1829   1.262       .  A
N1825      O1830   1.262       .  A
N1828      O1832   1.262       .  A
N1828      O1831   1.262       .  A
C1833      C1834   1.402       .  A
C1833      C1838   1.408       .  A
C1833      H1840   1.085       .  S
C1834      C1835   1.406       .  A
C1835      C1836   1.399       .  A
C1835      N1842   1.429       .  S
C1836      C1837   1.407       .  A
C1836      H1841   1.085       .  S
C1837      C1838   1.418       .  A
C1838      N1839   1.428       .  S
N1839      O1843   1.262       .  A
N1839      O1844   1.262       .  A
N1842      O1846   1.262       .  A
N1842      O1845   1.262       .  A
C1847      C1848   1.406       .  A
C1847      C1852   1.403       .  A
C1847      H1854   1.085       .  S
C1848      C1849   1.416       .  A
C1849      C1850   1.402       .  A
C1849      N1856   1.429       .  S
C1850      C1851   1.403       .  A
C1850      H1855   1.086       .  S
C1851      C1852   1.415       .  A
C1852      N1853   1.429       .  S
N1853      O1857   1.262       .  A
N1853      O1858   1.262       .  A
N1856      O1860   1.261       .  A
N1856      O1859   1.262       .  A
C1861      C1862   1.409       .  A
C1861      C1866   1.410       .  A
C1861      H1868   1.085       .  S
C1862      C1863   1.412       .  A
C1863      C1864   1.396       .  A
C1863      N1870   1.430       .  S
C1864      C1865   1.406       .  A
C1864      H1869   1.084       .  S
C1865      C1866   1.415       .  A
C1866      N1867   1.428       .  S
N1867      O1871   1.262       .  A
N1867      O1872   1.262       .  A
N1870      O1874   1.262       .  A
N1870      O1873   1.262       .  A
C1875      C1876   1.405       .  A
C1875      C1880   1.401       .  A
C1875      H1882   1.085       .  S
C1876      C1877   1.416       .  A
C1877      C1878   1.403       .  A
C1877      N1884   1.429       .  S
C1878      C1879   1.403       .  A
C1878      H1883   1.086       .  S
C1879      C1880   1.411       .  A
C1880      N1881   1.429       .  S
N1881      O1885   1.262       .  A
N1881      O1886   1.262       .  A
N1884      O1888   1.262       .  A
N1884      O1887   1.262       .  A
C1889      C1890   1.405       .  A
C1889      C1894   1.397       .  A
C1889      H1896   1.086       .  S
C1890      C1891   1.412       .  A
C1891      C1892   1.407       .  A
C1891      N1898   1.427       .  S
C1892      C1893   1.407       .  A
C1892      H1897   1.085       .  S
C1893      C1894   1.414       .  A
C1894      N1895   1.429   1_655  S
N1895      O1899   1.262       .  A
N1895      O1900   1.262       .  A
N1898      O1902   1.261       .  A
N1898      O1901   1.262       .  A
C1903      C1904   1.407       .  A
C1903      C1908   1.398       .  A
C1903      H1910   1.085       .  S
C1904      C1905   1.415       .  A
C1905      C1906   1.400       .  A
C1905      N1912   1.429       .  S
C1906      C1907   1.401       .  A
C1906      H1911   1.085       .  S
C1907      C1908   1.408       .  A
C1908      N1909   1.429       .  S
N1909      O1913   1.262       .  A
N1909      O1914   1.262       .  A
N1912      O1916   1.262       .  A
N1912      O1915   1.262       .  A
C1917      C1918   1.410       .  A
C1917      C1922   1.400       .  A
C1917      H1924   1.085       .  S
C1918      C1919   1.412       .  A
C1919      C1920   1.405       .  A
C1919      N1926   1.427       .  S
C1920      C1921   1.407       .  A
C1920      H1925   1.085       .  S
C1921      C1922   1.411       .  A
C1922      N1923   1.429       .  S
N1923      O1927   1.262       .  A
N1923      O1928   1.262       .  A
N1926      O1930   1.262       .  A
N1926      O1929   1.262       .  A
C1931      C1932   1.401       .  A
C1931      C1936   1.398       .  A
C1931      H1938   1.085       .  S
C1932      C1933   1.412       .  A
C1933      C1934   1.403       .  A
C1933      N1940   1.430       .  S
C1934      C1935   1.409       .  A
C1934      H1939   1.084       .  S
C1935      C1936   1.418       .  A
C1936      N1937   1.428       .  S
N1937      O1941   1.262       .  A
N1937      O1942   1.262       .  A
N1940      O1944   1.262       .  A
N1940      O1943   1.262       .  A
C1945      C1946   1.403       .  A
C1945      C1950   1.401       .  A
C1945      H1952   1.086       .  S
C1946      C1947   1.408       .  A
C1947      C1948   1.401       .  A
C1947      N1954   1.429       .  S
C1948      C1949   1.408       .  A
C1948      H1953   1.086       .  S
C1949      C1950   1.415       .  A
C1950      N1951   1.431       .  S
N1951      O1955   1.262       .  A
N1951      O1956   1.262       .  A
N1954      O1958   1.262       .  A
N1954      O1957   1.262       .  A
C1959      C1960   1.406       .  A
C1959      C1964   1.402       .  A
C1959      H1966   1.085       .  S
C1960      C1961   1.412       .  A
C1961      C1962   1.402       .  A
C1961      N1968   1.428       .  S
C1962      C1963   1.404       .  A
C1962      H1967   1.085       .  S
C1963      C1964   1.412       .  A
C1964      N1965   1.429       .  S
N1965      O1969   1.262       .  A
N1965      O1970   1.262       .  A
N1968      O1972   1.262       .  A
N1968      O1971   1.262       .  A
C1973      C1974   1.409       .  A
C1973      C1978   1.399       .  A
C1973      H1980   1.085       .  S
C1974      C1975   1.418       .  A
C1975      C1976   1.401       .  A
C1975      N1982   1.428       .  S
C1976      C1977   1.400       .  A
C1976      H1981   1.086       .  S
C1977      C1978   1.408       .  A
C1978      N1979   1.430       .  S
N1979      O1983   1.262       .  A
N1979      O1984   1.262       .  A
N1982      O1986   1.262       .  A
N1982      O1985   1.262       .  A
C1987      C1988   1.410       .  A
C1987      C1992   1.401       .  A
C1987      H1994   1.085       .  S
C1988      C1989   1.413       .  A
C1989      C1990   1.401       .  A
C1989      N1996   1.426       .  S
C1990      C1991   1.405       .  A
C1990      H1995   1.085       .  S
C1991      C1992   1.410       .  A
C1992      N1993   1.429       .  S
N1993      O1997   1.262       .  A
N1993      O1998   1.262       .  A
N1996      O2000   1.262       .  A
N1996      O1999   1.262       .  A
C2001      C2002   1.403       .  A
C2001      C2006   1.397       .  A
C2001      H2008   1.086       .  S
C2002      C2003   1.415       .  A
C2003      C2004   1.409       .  A
C2003      N2010   1.428   1_565  S
C2004      C2005   1.407       .  A
C2004      H2009   1.085       .  S
C2005      C2006   1.414       .  A
C2006      N2007   1.429       .  S
N2007      O2011   1.262       .  A
N2007      O2012   1.262       .  A
N2010      O2014   1.262       .  A
N2010      O2013   1.262       .  A
C2015      C2016   1.405       .  A
C2015      C2020   1.402       .  A
C2015      H2022   1.087       .  S
C2016      C2017   1.416       .  A
C2017      C2018   1.404       .  A
C2017      N2024   1.429       .  S
C2018      C2019   1.401       .  A
C2018      H2023   1.087       .  S
C2019      C2020   1.410       .  A
C2020      N2021   1.428       .  S
N2021      O2025   1.262       .  A
N2021      O2026   1.261       .  A
N2024      O2028   1.262       .  A
N2024      O2027   1.262       .  A
C2029      C2030   1.403       .  A
C2029      C2034   1.407       .  A
C2029      H2036   1.085       .  S
C2030      C2031   1.411       .  A
C2031      C2032   1.397       .  A
C2031      N2038   1.430       .  S
C2032      C2033   1.406       .  A
C2032      H2037   1.085       .  S
C2033      C2034   1.416       .  A
C2034      N2035   1.428       .  S
N2035      O2039   1.262       .  A
N2035      O2040   1.262       .  A
N2038      O2042   1.262       .  A
N2038      O2041   1.262       .  A
C2043      C2044   1.402       .  A
C2043      C2048   1.400       .  A
C2043      H2050   1.085       .  S
C2044      C2045   1.406       .  A
C2045      C2046   1.398       .  A
C2045      N2052   1.429       .  S
C2046      C2047   1.411       .  A
C2046      H2051   1.085       .  S
C2047      C2048   1.415       .  A
C2048      N2049   1.428       .  S
N2049      O2053   1.262       .  A
N2049      O2054   1.262   1_545  A
N2052      O2056   1.262       .  A
N2052      O2055   1.262       .  A
C2057      C2058   1.407       .  A
C2057      C2062   1.404       .  A
C2057      H2064   1.085       .  S
C2058      C2059   1.416       .  A
C2059      C2060   1.403       .  A
C2059      N2066   1.429       .  S
C2060      C2061   1.402       .  A
C2060      H2065   1.085       .  S
C2061      C2062   1.414       .  A
C2062      N2063   1.429       .  S
N2063      O2067   1.262       .  A
N2063      O2068   1.262       .  A
N2066      O2070   1.262   1_545  A
N2066      O2069   1.262       .  A
