geometry optimzed in LAMMPS
_audit_creation_date              2020-12-01 
_audit_creation_method            'lammps2cif' 
_symmetry_space_group_name_H-M    'P1' 
_symmetry_Int_Tables_number       1 
_symmetry_cell_setting            triclinic 
loop_ 
_symmetry_equiv_pos_as_xyz 
  x,y,z 
_cell_length_a                    30.72242118 
_cell_length_b                    31.024075996929383 
_cell_length_c                    25.281861286337612 
_cell_angle_alpha                 88.47313253367898 
_cell_angle_beta                  91.4572547912022 
_cell_angle_gamma                 90.59675449294784 
loop_ 
_atom_site_label 
_atom_site_type_symbol 
_atom_site_fract_x 
_atom_site_fract_y 
_atom_site_fract_z 
_atom_site_charge 
N1          N  0.21856737  0.23831563  0.80711179     0.00400
C2          C  0.18523061  0.25178068  0.83630010     0.03000
C3          C  0.17528349  0.22132649  0.87500051    -0.19900
C4          C  0.20351946  0.18777215  0.86908899    -0.20100
C5          C  0.23002876  0.19936829  0.82790261     0.02900
H6          H  0.15115845  0.22377502  0.90521494     0.16700
H7          H  0.20575709  0.15867508  0.89321904     0.16700
Zn8        Zn  0.47829831  0.05332966  0.94784059     1.49700
Zn9        Zn  0.03815008  0.51562536  0.85829400     1.49400
Zn10       Zn  0.49785687  0.44953753  0.95328975     1.49100
Zn11       Zn  0.43748767  0.48444623  0.85727898     1.49500
O12         O  0.48626766  0.49731277  0.90446522    -1.80200
O13         O  0.03374413  0.08398213  0.95423032    -0.70800
O14         O  0.07329428  0.46153887  0.85630227    -0.70700
O15         O  0.50190115  0.47004332  0.02880424    -0.70200
O16         O  0.07870537  0.05347495  0.89864275    -0.70900
O17         O  0.46551635  0.03461922  0.02344999    -0.70500
O18         O  0.05034580  0.42223285  0.92537022    -0.71000
O19         O  0.40410549  0.43127567  0.88412261    -0.70400
O20         O  0.02035758  0.52881571  0.78202962    -0.71200
O21         O  0.44661588  0.40946747  0.95222898    -0.70600
O22         O  0.45751938  0.47989286  0.78177612    -0.71000
O23         O  0.40094920  0.04216855  0.85520140    -0.71000
O24         O  0.42889043  0.08866496  0.91305085    -0.70700
C25         C  0.07099453  0.08079865  0.93392373     0.81000
C26         C  0.07485920  0.42769651  0.88571385     0.81500
C27         C  0.48129816  0.50063781  0.04944788     0.80500
C28         C  0.41238098  0.40574022  0.92343220     0.80900
C29         C  0.48791121  0.50115280  0.75914138     0.82000
C30         C  0.40100182  0.07865694  0.87695927     0.81100
N31         N  0.26731386  0.21611405  0.01325649     0.00400
C32         C  0.30365765  0.22716058  0.98697730     0.03000
C33         C  0.31474018  0.19479516  0.95363904    -0.19900
C34         C  0.28380792  0.16267148  0.95967959    -0.20100
C35         C  0.25502515  0.17688366  0.99628543     0.03500
H36         H  0.34075569  0.19569314  0.92557179     0.16700
H37         H  0.28070677  0.13374544  0.93683685     0.16700
N38         N  0.02344996  0.03480894  0.30583200     0.00400
C39         C  0.05638228  0.52206802  0.31794237     0.03000
C40         C  0.07274309  0.54857748  0.35666129    -0.19900
C41         C  0.53389110  0.07623153  0.37158266    -0.20100
C42         C  0.50115309  0.06719020  0.33501778     0.02900
H43         H  0.10272028  0.54416012  0.37939369     0.16700
H44         H  0.53383561  0.10080762  0.40117341     0.16700
Zn45       Zn  0.25590828  0.21584480  0.45464880     1.49700
Zn46       Zn  0.18886403  0.24993803  0.36350969     1.49400
Zn47       Zn  0.23334082  0.31362463  0.44518028     1.49100
Zn48       Zn  0.28862304  0.27150820  0.35737461     1.49500
O49         O  0.24131915  0.26230476  0.40511754    -1.80200
O50         O  0.20487140  0.17582367  0.45858359    -0.70800
O51         O  0.15199704  0.30365049  0.35667138    -0.70700
O52         O  0.22323544  0.29813469  0.52237501    -0.70200
O53         O  0.15580073  0.19911211  0.39802015    -0.70900
O54         O  0.26263772  0.23809480  0.52936347    -0.70500
O55         O  0.18581976  0.35015351  0.40990667    -0.71000
O56         O  0.32751978  0.32055550  0.38199597    -0.70400
O57         O  0.20447412  0.23978178  0.28711425    -0.71200
O58         O  0.28913131  0.34785817  0.44650413    -0.70600
O59         O  0.26576888  0.27885408  0.28223623    -0.71000
O60         O  0.32588611  0.21884090  0.35755424    -0.71000
O61         O  0.30786268  0.18136025  0.43019110    -0.70700
C62         C  0.16770469  0.17317342  0.43567812     0.81000
C63         C  0.15653487  0.34128118  0.37509914     0.81500
C64         C  0.24257164  0.26891374  0.55030449     0.80500
C65         C  0.32344835  0.34665340  0.41958685     0.80900
C66         C  0.23394061  0.25891972  0.26026980     0.82000
C67         C  0.33068659  0.18650180  0.38896667     0.81100
N68         N  0.52001415  0.48663029  0.50388599     0.00400
C69         C  0.50664573  0.45230225  0.47567310     0.03000
C70         C  0.53716954  0.44230405  0.43900771    -0.19900
C71         C  0.07575715  0.96652302  0.45247277    -0.20100
C72         C  0.06350651  0.99365318  0.49163232     0.02900
H73         H  0.53453983  0.41761571  0.40961746     0.16700
H74         H  0.10480207  0.96937736  0.42933347     0.16700
C75         C  0.13899886  0.13953775  0.45418288    -0.14600
C76         C  0.11970242  0.10901371  0.47308900     0.09500
C77         C  0.09991898  0.07042897  0.49183040     0.11300
C78         C  0.08346226  0.03534807  0.49866526    -0.15400
C79         C  0.46376902  0.43312372  0.47599028    -0.14600
C80         C  0.42913917  0.41590108  0.46676242     0.09500
C81         C  0.39079380  0.39430816  0.44969897     0.11300
C82         C  0.35949002  0.37400303  0.43429503    -0.15400
C83         C  0.07358319  0.47968987  0.30989018    -0.14600
C84         C  0.08974210  0.44451727  0.31596637     0.09500
C85         C  0.11019662  0.40595824  0.33407444     0.11300
C86         C  0.12954685  0.37545039  0.35344776    -0.15400
C87         C  0.45922497  0.08776018  0.33517599    -0.14600
C88         C  0.42654693  0.10705729  0.34498648     0.09500
C89         C  0.39124951  0.13180267  0.36201146     0.11300
C90         C  0.36292329  0.15520816  0.37648489    -0.15400
C91         C  0.25220034  0.23520551  0.05903941    -0.14600
C92         C  0.24199736  0.24670585  0.10218508     0.09500
C93         C  0.23463234  0.25407794  0.15615682     0.11300
C94         C  0.23222326  0.25714831  0.20348507    -0.15400
C95         C  0.38256529  0.37149422  0.93692400    -0.14600
C96         C  0.36124620  0.34119180  0.95282466     0.09500
C97         C  0.33950519  0.30377757  0.97186150     0.11300
C98         C  0.32256289  0.26975467  0.98365219    -0.15400
C99         C  0.21208593  0.15860241  0.00181774    -0.14600
C100        C  0.17635440  0.14339260  0.99376185     0.09500
C101        C  0.13728788  0.12488851  0.97389117     0.11300
C102        C  0.10616380  0.10681369  0.95429161    -0.15400
C103        C  0.50470558  0.49750924  0.55371606    -0.14600
C104        C  0.49563402  0.50294153  0.59924192     0.09500
C105        C  0.49007338  0.50471051  0.65454515     0.11300
C106        C  0.48816418  0.50380664  0.70222887    -0.15400
C107        C  0.48030219  0.50258900  0.10626918    -0.14600
C108        C  0.48307884  0.50583313  0.15377256     0.09500
C109        C  0.48441425  0.01407810  0.21111699     0.11300
C110        C  0.00421566  0.02253785  0.25736136    -0.15400
C111        C  0.24130100  0.27022600  0.60717853    -0.14600
C112        C  0.23952404  0.26883420  0.65491430     0.09500
C113        C  0.23564120  0.26335543  0.71042765     0.11300
C114        C  0.22943696  0.25410179  0.75638133    -0.15400
C115        C  0.36859776  0.10922623  0.85894718    -0.14600
C116        C  0.33975078  0.13213159  0.84158584     0.09500
C117        C  0.30343341  0.15715244  0.82476714     0.11300
C118        C  0.27023833  0.17742947  0.81908687    -0.15400
C119        C  0.10378429  0.39388759  0.87186207    -0.14600
C120        C  0.12553094  0.36440430  0.85749224     0.09500
C121        C  0.14851694  0.32777359  0.84187064     0.11300
C122        C  0.16632444  0.29413172  0.83401231    -0.15400
N123        N  0.21603258  0.73033815  0.79958869     0.00400
C124        C  0.18178070  0.74244019  0.82833226     0.03000
C125        C  0.17020092  0.70975370  0.86345423    -0.19900
C126        C  0.19835344  0.67636490  0.85603132    -0.20100
C127        C  0.22638843  0.69013270  0.81724760     0.02900
H128        H  0.14546144  0.71087842  0.89309288     0.16700
H129        H  0.19997728  0.64634543  0.87863352     0.16700
Zn130      Zn  0.47467498  0.54792902  0.94501411     1.49700
Zn131      Zn  0.04082081  0.00685749  0.86611094     1.49400
Zn132      Zn  0.50048482  0.95471988  0.95420531     1.49100
Zn133      Zn  0.44089924  0.99134406  0.85834435     1.49500
O134        O  0.48945345  0.00329694  0.90625253    -1.80200
O135        O  0.03177246  0.59039165  0.94932606    -0.70800
O136        O  0.07550475  0.95216739  0.86526721    -0.70700
O137        O  0.50359637  0.97373066  0.03064943    -0.70200
O138        O  0.07617695  0.56160626  0.89181658    -0.70900
O139        O  0.46265958  0.53021065  0.02132530    -0.70500
O140        O  0.05193722  0.91354797  0.93449259    -0.71000
O141        O  0.40757708  0.93752782  0.88294514    -0.70400
O142        O  0.02302255  0.01909656  0.78951390    -0.71200
O143        O  0.44939134  0.91444306  0.95103250    -0.70600
O144        O  0.46150699  0.98746464  0.78305917    -0.71000
O145        O  0.39761928  0.53527195  0.85254988    -0.71000
O146        O  0.42527167  0.58283994  0.90918279    -0.70700
C147        C  0.06888076  0.58781853  0.92845524     0.81000
C148        C  0.07652834  0.91834032  0.89476809     0.81500
C149        C  0.48302019  0.00431527  0.05141307     0.80500
C150        C  0.41557560  0.91110827  0.92142280     0.80900
C151        C  0.49242833  0.00817086  0.76079857     0.82000
C152        C  0.39763826  0.57223612  0.87307168     0.81100
N153        N  0.26956895  0.71974365  0.00319919     0.00400
C154        C  0.30435194  0.73107960  0.97408056     0.03000
C155        C  0.31233234  0.69997145  0.93768971    -0.19900
C156        C  0.28112661  0.66829405  0.94490611    -0.20100
C157        C  0.25507444  0.68162160  0.98481042     0.03500
H158        H  0.33659379  0.70131276  0.90737968     0.16700
H159        H  0.27606542  0.64003456  0.92131770     0.16700
N160        N  0.01742184  0.53652862  0.29935310     0.00400
C161        C  0.06254470  0.02098163  0.32492896     0.03000
C162        C  0.07865410  0.04848368  0.36276979    -0.19900
C163        C  0.55242602  0.58156085  0.35790875    -0.20100
C164        C  0.51777523  0.57136280  0.32469313     0.02900
H165        H  0.10855036  0.04474891  0.38588439     0.16700
H166        H  0.55428442  0.60787455  0.38511618     0.16700
Zn167      Zn  0.27151864  0.71590927  0.45036538     1.49700
Zn168      Zn  0.20372884  0.75068098  0.35954994     1.49400
Zn169      Zn  0.24715569  0.81326769  0.44290448     1.49100
Zn170      Zn  0.30321219  0.77367596  0.35336059     1.49500
O171        O  0.25611848  0.76288866  0.40136316    -1.80200
O172        O  0.22124259  0.67445332  0.45266478    -0.70800
O173        O  0.16565631  0.80400876  0.35470382    -0.70700
O174        O  0.23684352  0.79633813  0.51959500    -0.70200
O175        O  0.17181997  0.69874354  0.39308706    -0.70900
O176        O  0.27679498  0.73671084  0.52629129    -0.70500
O177        O  0.19876632  0.84969687  0.40953395    -0.71000
O178        O  0.34055178  0.82362821  0.37843543    -0.70400
O179        O  0.21927643  0.74145767  0.28278784    -0.71200
O180        O  0.30230719  0.84824874  0.44482105    -0.70600
O181        O  0.28077446  0.78012807  0.27766825    -0.71000
O182        O  0.34216006  0.72225686  0.35371412    -0.71000
O183        O  0.32470064  0.68332964  0.42550464    -0.70700
C184        C  0.18402735  0.67199425  0.42973154     0.81000
C185        C  0.16933334  0.84115260  0.37480643     0.81500
C186        C  0.25576677  0.76682702  0.54742039     0.80500
C187        C  0.33627311  0.84856760  0.41716634     0.80900
C188        C  0.24890596  0.76016576  0.25578401     0.82000
C189        C  0.34766226  0.68968333  0.38457776     0.81100
N190        N  0.53350744  0.98221537  0.51024880     0.00400
C191        C  0.52058604  0.94740393  0.48284551     0.03000
C192        C  0.55191886  0.93643177  0.44773352    -0.19900
C193        C  0.08072454  0.46819436  0.44688687    -0.20100
C194        C  0.06993621  0.49676535  0.48521882     0.02900
H195        H  0.54936945  0.91147043  0.41874177     0.16700
H196        H  0.10959136  0.46930234  0.42325557     0.16700
C197        C  0.15521497  0.63798595  0.44723657    -0.14600
C198        C  0.13427806  0.60810372  0.46514863     0.09500
C199        C  0.11157572  0.57104463  0.48377694     0.11300
C200        C  0.09239711  0.53739262  0.49135737    -0.15400
C201        C  0.47700403  0.93016068  0.48037353    -0.14600
C202        C  0.44192950  0.91492109  0.46886116     0.09500
C203        C  0.40329667  0.89533892  0.44949715     0.11300
C204        C  0.37194519  0.87595304  0.43267324    -0.15400
C205        C  0.08072978  0.97884437  0.31736036    -0.14600
C206        C  0.09803867  0.94410756  0.32287513     0.09500
C207        C  0.12008846  0.90577064  0.33891142     0.11300
C208        C  0.14088904  0.87520398  0.35570809    -0.15400
C209        C  0.47627130  0.59250534  0.32681490    -0.14600
C210        C  0.44402173  0.61193891  0.33792039     0.09500
C211        C  0.40905056  0.63645352  0.35620316     0.11300
C212        C  0.38062818  0.65933687  0.37152743    -0.15400
C213        C  0.25850744  0.73698873  0.05192909    -0.14600
C214        C  0.25189182  0.74745961  0.09668132     0.09500
C215        C  0.24786658  0.75460319  0.15143699     0.11300
C216        C  0.24702307  0.75798794  0.19891927    -0.15400
C217        C  0.38599050  0.87614820  0.93275852    -0.14600
C218        C  0.36464044  0.84513595  0.94636508     0.09500
C219        C  0.34251186  0.80709829  0.96266075     0.11300
C220        C  0.32482979  0.77303199  0.97244138    -0.15400
C221        C  0.21210821  0.66397204  0.99264363    -0.14600
C222        C  0.17603198  0.64896479  0.98636630     0.09500
C223        C  0.13617409  0.63074177  0.96830468     0.11300
C224        C  0.10440729  0.61319633  0.94937870    -0.15400
C225        C  0.51603380  0.99557773  0.55791746    -0.14600
C226        C  0.50505257  0.00349128  0.60209130     0.09500
C227        C  0.49739777  0.00824490  0.65655082     0.11300
C228        C  0.49397903  0.00945577  0.70396089    -0.15400
C229        C  0.48025290  0.00533786  0.10820402    -0.14600
C230        C  0.48015706  0.00819474  0.15581364     0.09500
C231        C  0.49164329  0.51235562  0.20829814     0.11300
C232        C  0.99830348  0.52540407  0.25036287    -0.15400
C233        C  0.25234130  0.76691147  0.60427252    -0.14600
C234        C  0.24734959  0.76508528  0.65163202     0.09500
C235        C  0.23901847  0.75915390  0.70633813     0.11300
C236        C  0.22949999  0.74876927  0.75108590    -0.15400
C237        C  0.36563199  0.60264274  0.85334812    -0.14600
C238        C  0.33708246  0.62509472  0.83422778     0.09500
C239        C  0.30075282  0.64935767  0.81553024     0.11300
C240        C  0.26718693  0.66895582  0.80905222    -0.15400
C241        C  0.10463451  0.88377485  0.88046490    -0.14600
C242        C  0.12558000  0.85442199  0.86387872     0.09500
C243        C  0.14761807  0.81857095  0.84382254     0.11300
C244        C  0.16451408  0.78544241  0.83122530    -0.15400
N245        N  0.71987544  0.23292847  0.80690408     0.00400
C246        C  0.68574330  0.24553404  0.83543686     0.03000
C247        C  0.67475185  0.21385088  0.87217564    -0.19900
C248        C  0.70309508  0.18044465  0.86577148    -0.20100
C249        C  0.73072023  0.19334297  0.82620322     0.02900
H250        H  0.64994233  0.21545992  0.90167507     0.16700
H251        H  0.70484687  0.15078046  0.88898527     0.16700
Zn252      Zn  0.97869132  0.04844875  0.94861665     1.49700
Zn253      Zn  0.53669131  0.50755553  0.86180087     1.49400
Zn254      Zn  0.99879175  0.45695929  0.94920134     1.49100
Zn255      Zn  0.93912179  0.49234643  0.85295020     1.49500
O256        O  0.98765060  0.50489792  0.90062285    -1.80200
O257        O  0.53386385  0.08852054  0.95537415    -0.70800
O258        O  0.57228965  0.45357750  0.86060832    -0.70700
O259        O  0.00329084  0.47702359  0.02502677    -0.70200
O260        O  0.57822742  0.06001530  0.89758301    -0.70900
O261        O  0.96699739  0.03146232  0.02506199    -0.70500
O262        O  0.54976602  0.41471670  0.93019134    -0.71000
O263        O  0.90539086  0.43894374  0.87920589    -0.70400
O264        O  0.51837769  0.51975001  0.78541652    -0.71200
O265        O  0.94712074  0.41724655  0.94806181    -0.70600
O266        O  0.95958844  0.48888365  0.77723741    -0.71000
O267        O  0.90145294  0.03647144  0.85653534    -0.71000
O268        O  0.92934364  0.08352608  0.91356764    -0.70700
C269        C  0.57097539  0.08607249  0.93441979     0.81000
C270        C  0.57419375  0.41996862  0.89041554     0.81500
C271        C  0.98235439  0.50736728  0.04573906     0.80500
C272        C  0.91309000  0.41355781  0.91886847     0.80900
C273        C  0.99021881  0.51026962  0.75517589     0.82000
C274        C  0.90155619  0.07323912  0.87755148     0.81100
N275        N  0.76704861  0.22388194  0.01024417     0.00400
C276        C  0.80244475  0.23598840  0.98257218     0.03000
C277        C  0.81328584  0.20418930  0.94827218    -0.19900
C278        C  0.78334950  0.17130476  0.95527661    -0.20100
C279        C  0.75514213  0.18455536  0.99304095     0.03500
H280        H  0.83859376  0.20574161  0.91924944     0.16700
H281        H  0.78056375  0.14226250  0.93265862     0.16700
N282        N  0.51185416  0.03281099  0.30627083     0.00400
C283        C  0.56544956  0.52131267  0.31659627     0.03000
C284        C  0.58288736  0.54981969  0.35255934    -0.19900
C285        C  0.04789288  0.07997620  0.36796617    -0.20100
C286        C  0.01441727  0.07075753  0.33258358     0.02900
H287        H  0.61310702  0.54635200  0.37510901     0.16700
H288        H  0.04889674  0.10572389  0.39599435     0.16700
Zn289      Zn  0.76789470  0.21600721  0.45515840     1.49700
Zn290      Zn  0.69912500  0.25063579  0.36613986     1.49400
Zn291      Zn  0.74313711  0.31356568  0.44860285     1.49100
Zn292      Zn  0.79831360  0.27447425  0.35807066     1.49500
O293        O  0.75198121  0.26319618  0.40693562    -1.80200
O294        O  0.71754852  0.17461908  0.45839327    -0.70800
O295        O  0.66134871  0.30366057  0.36106644    -0.70700
O296        O  0.73416213  0.29648011  0.52548331    -0.70200
O297        O  0.66715804  0.19932606  0.40036308    -0.70900
O298        O  0.77410412  0.23675059  0.53093555    -0.70500
O299        O  0.69435977  0.34966416  0.41555809    -0.71000
O300        O  0.83509023  0.32540693  0.38179818    -0.70400
O301        O  0.71336085  0.24127024  0.28917896    -0.71200
O302        O  0.79773963  0.34948039  0.44921290    -0.70600
O303        O  0.77430282  0.28070584  0.28306565    -0.71000
O304        O  0.83808500  0.22347724  0.35778235    -0.71000
O305        O  0.82098027  0.18376867  0.42910251    -0.70700
C306        C  0.67988384  0.17246463  0.43655499     0.81000
C307        C  0.66510150  0.34090491  0.38070633     0.81500
C308        C  0.75356287  0.26689299  0.55268429     0.80500
C309        C  0.83106669  0.35049403  0.42044715     0.80900
C310        C  0.74224418  0.26067106  0.26170508     0.82000
C311        C  0.84389200  0.19065579  0.38821260     0.81100
N312        N  0.03005566  0.48719036  0.50377979     0.00400
C313        C  0.01528794  0.45294863  0.47647866     0.03000
C314        C  0.04576360  0.44042896  0.44105826    -0.19900
C315        C  0.58544106  0.96586717  0.45375342    -0.20100
C316        C  0.57298589  0.99374525  0.49209737     0.02900
H317        H  0.04201603  0.41533423  0.41236929     0.16700
H318        H  0.61415695  0.96863771  0.42993254     0.16700
C319        C  0.65126357  0.13856678  0.45460641    -0.14600
C320        C  0.63104293  0.10828987  0.47263712     0.09500
C321        C  0.61010637  0.07023610  0.49110636     0.11300
C322        C  0.59301703  0.03550251  0.49840708    -0.15400
C323        C  0.97135474  0.43641450  0.47597360    -0.14600
C324        C  0.93607649  0.42072866  0.46638580     0.09500
C325        C  0.89739351  0.39980886  0.44932461     0.11300
C326        C  0.86626110  0.37911355  0.43429926    -0.15400
C327        C  0.58216054  0.47834984  0.31149156    -0.14600
C328        C  0.59785121  0.44322230  0.31998785     0.09500
C329        C  0.61793905  0.40510954  0.34018878     0.11300
C330        C  0.63745132  0.37488855  0.36000999    -0.15400
C331        C  0.97309043  0.09260059  0.33273016    -0.14600
C332        C  0.94088759  0.11269794  0.34261559     0.09500
C333        C  0.90579340  0.13771531  0.35988969     0.11300
C334        C  0.87718250  0.16064069  0.37482258    -0.15400
C335        C  0.75379417  0.24125194  0.05800405    -0.14600
C336        C  0.74542202  0.25118118  0.10245149     0.09500
C337        C  0.74021684  0.25706119  0.15725614     0.11300
C338        C  0.73935224  0.25933364  0.20484955    -0.15400
C339        C  0.88276820  0.37964017  0.93245209    -0.14600
C340        C  0.86087342  0.34974849  0.94857674     0.09500
C341        C  0.83841164  0.31271778  0.96785896     0.11300
C342        C  0.82111268  0.27880746  0.97969090    -0.15400
C343        C  0.71275732  0.16507190  0.99979107    -0.14600
C344        C  0.67727081  0.14880534  0.99290270     0.09500
C345        C  0.63799922  0.12955816  0.97436829     0.11300
C346        C  0.60650490  0.11154085  0.95535231    -0.15400
C347        C  0.01368926  0.50111039  0.55183076    -0.14600
C348        C  0.00305118  0.50887765  0.59621099     0.09500
C349        C  0.99518852  0.51264669  0.65081520     0.11300
C350        C  0.99155580  0.51268633  0.69828731    -0.15400
C351        C  0.98057260  0.50897998  0.10253718    -0.14600
C352        C  0.98164086  0.51205087  0.15011653     0.09500
C353        C  0.99282159  0.01440622  0.21260567     0.11300
C354        C  0.49397008  0.02161676  0.25663806    -0.15400
C355        C  0.75142123  0.26700368  0.60960769    -0.14600
C356        C  0.74774436  0.26532973  0.65715012     0.09500
C357        C  0.74097946  0.25981267  0.71220729     0.11300
C358        C  0.73253265  0.25011201  0.75746501    -0.15400
C359        C  0.86939014  0.10380265  0.85882564    -0.14600
C360        C  0.84076049  0.12679099  0.84107686     0.09500
C361        C  0.80454006  0.15173045  0.82375806     0.11300
C362        C  0.77122550  0.17177534  0.81781169    -0.15400
C363        C  0.60337841  0.38620621  0.87676720    -0.14600
C364        C  0.62545576  0.35711306  0.86181610     0.09500
C365        C  0.64894028  0.32119845  0.84467653     0.11300
C366        C  0.66706276  0.28802971  0.83505495    -0.15400
N367        N  0.71768717  0.73854455  0.80063691     0.00400
C368        C  0.68340864  0.75119952  0.82878495     0.03000
C369        C  0.67222822  0.71965122  0.86563149    -0.19900
C370        C  0.70060072  0.68624999  0.85960317    -0.20100
C371        C  0.72837295  0.69902055  0.82014869     0.02900
H372        H  0.64737228  0.72140821  0.89506788     0.16700
H373        H  0.70217117  0.65660512  0.88291582     0.16700
Zn374      Zn  0.97645789  0.55505157  0.94192417     1.49700
Zn375      Zn  0.54002085  0.01414649  0.86393737     1.49400
Zn376      Zn  0.00082804  0.94980405  0.95769014     1.49100
Zn377      Zn  0.94119422  0.98549381  0.86112593     1.49500
O378        O  0.99003330  0.99758485  0.90845082    -1.80200
O379        O  0.52988347  0.58365126  0.95131185    -0.70800
O380        O  0.57487186  0.96006627  0.86158073    -0.70700
O381        O  0.00536004  0.97077518  0.03316658    -0.70200
O382        O  0.57437197  0.55439491  0.89422021    -0.70900
O383        O  0.96372953  0.53692370  0.01765795    -0.70500
O384        O  0.55229568  0.92021123  0.93034813    -0.71000
O385        O  0.90740176  0.93272184  0.88753947    -0.70400
O386        O  0.52257686  0.02691733  0.78742758    -0.71200
O387        O  0.94869464  0.91076578  0.95670383    -0.70600
O388        O  0.96122083  0.98070056  0.78589683    -0.71000
O389        O  0.89937285  0.54319182  0.84954533    -0.71000
O390        O  0.92736999  0.59014216  0.90681961    -0.70700
C391        C  0.56693316  0.58113341  0.93024910     0.81000
C392        C  0.57651115  0.92596305  0.89045901     0.81500
C393        C  0.98525318  0.00186909  0.05348697     0.80500
C394        C  0.91480446  0.90734322  0.92721005     0.80900
C395        C  0.99211776  0.00114928  0.76327650     0.82000
C396        C  0.89954885  0.57986429  0.87082883     0.81100
N397        N  0.76388483  0.71891059  0.00624254     0.00400
C398        C  0.80024064  0.73026731  0.98015585     0.03000
C399        C  0.81089774  0.69876687  0.94541695    -0.19900
C400        C  0.77972268  0.66676993  0.95045333    -0.20100
C401        C  0.75115183  0.68026740  0.98771850     0.03500
H402        H  0.83704410  0.70000419  0.91752657     0.16700
H403        H  0.77655071  0.63822374  0.92694420     0.16700
N404        N  0.52577947  0.53465988  0.29907037     0.00400
C405        C  0.55123304  0.01984327  0.32522352     0.03000
C406        C  0.56593325  0.04634747  0.36482985    -0.19900
C407        C  0.04222663  0.58003871  0.36316469    -0.20100
C408        C  0.00867802  0.57188379  0.32736348     0.02900
H409        H  0.59595994  0.04309423  0.38763310     0.16700
H410        H  0.04356936  0.60501048  0.39228876     0.16700
Zn411      Zn  0.76165436  0.71691772  0.44905269     1.49700
Zn412      Zn  0.69321010  0.75130265  0.35975878     1.49400
Zn413      Zn  0.73725792  0.81457019  0.44176215     1.49100
Zn414      Zn  0.79247315  0.77517919  0.35183436     1.49500
O415        O  0.74598328  0.76397776  0.40053625    -1.80200
O416        O  0.71095635  0.67571368  0.45323582    -0.70800
O417        O  0.65549748  0.80448689  0.35426683    -0.70700
O418        O  0.72878867  0.79806590  0.51874688    -0.70200
O419        O  0.66103919  0.70010405  0.39440151    -0.70900
O420        O  0.76894771  0.73848187  0.52430624    -0.70500
O421        O  0.68842245  0.85049000  0.40884840    -0.71000
O422        O  0.82959680  0.82581221  0.37564115    -0.70400
O423        O  0.70788925  0.74151815  0.28307616    -0.71200
O424        O  0.79187169  0.85031496  0.44244812    -0.70600
O425        O  0.76870585  0.78117246  0.27676576    -0.71000
O426        O  0.83212604  0.72419804  0.35189747    -0.71000
O427        O  0.81453275  0.68446476  0.42301741    -0.70700
C428        C  0.67336630  0.67352259  0.43114554     0.81000
C429        C  0.65916358  0.84171232  0.37402200     0.81500
C430        C  0.74878301  0.76890580  0.54598165     0.80500
C431        C  0.82549622  0.85092187  0.41423298     0.80900
C432        C  0.73681885  0.76078501  0.25553867     0.82000
C433        C  0.83769717  0.69137041  0.38235928     0.81100
N434        N  0.02389445  0.98215336  0.50929842     0.00400
C435        C  0.01056351  0.94817923  0.48056824     0.03000
C436        C  0.04185150  0.93774870  0.44501985    -0.19900
C437        C  0.57074422  0.47157835  0.44523604    -0.20100
C438        C  0.55903566  0.49867453  0.48461234     0.02900
H439        H  0.03921827  0.91367721  0.41486354     0.16700
H440        H  0.59969318  0.47426698  0.42197330     0.16700
C441        C  0.64424310  0.64005789  0.44959196    -0.14600
C442        C  0.62273624  0.61057504  0.46755242     0.09500
C443        C  0.59931654  0.57365438  0.48537739     0.11300
C444        C  0.58017391  0.53984421  0.49207056    -0.15400
C445        C  0.96672350  0.93155000  0.47745735    -0.14600
C446        C  0.93141806  0.91696845  0.46557347     0.09500
C447        C  0.89254610  0.89794592  0.44594191     0.11300
C448        C  0.86109748  0.87865572  0.42915210    -0.15400
C449        C  0.57075236  0.97871005  0.31595281    -0.14600
C450        C  0.58858217  0.94425505  0.32046443     0.09500
C451        C  0.61065823  0.90603503  0.33639367     0.11300
C452        C  0.63110337  0.87561456  0.35405495    -0.15400
C453        C  0.96755983  0.59397990  0.32796141    -0.14600
C454        C  0.93528412  0.61393395  0.33778292     0.09500
C455        C  0.89993818  0.63867627  0.35474250     0.11300
C456        C  0.87109749  0.66142558  0.36934383    -0.15400
C457        C  0.74966065  0.73683578  0.05320198    -0.14600
C458        C  0.74078822  0.74789691  0.09701150     0.09500
C459        C  0.73529440  0.75535412  0.15136445     0.11300
C460        C  0.73423384  0.75871056  0.19878005    -0.15400
C461        C  0.88434616  0.87353302  0.94000253    -0.14600
C462        C  0.86195902  0.84348147  0.95423877     0.09500
C463        C  0.83866314  0.80619061  0.97053122     0.11300
C464        C  0.82043019  0.77232967  0.97970037    -0.15400
C465        C  0.70839038  0.66151787  0.99357443    -0.14600
C466        C  0.67283646  0.64552663  0.98645304     0.09500
C467        C  0.63360440  0.62603226  0.96838132     0.11300
C468        C  0.60220489  0.60741241  0.95012567    -0.15400
C469        C  0.00755498  0.99377611  0.55829508    -0.14600
C470        C  0.99844105  0.00035154  0.60350184     0.09500
C471        C  0.99360896  0.00355929  0.65872424     0.11300
C472        C  0.99231176  0.00351002  0.70640767    -0.15400
C473        C  0.98411209  0.00431118  0.11026381    -0.14600
C474        C  0.98598868  0.00792972  0.15775701     0.09500
C475        C  0.98746440  0.51794492  0.20522338     0.11300
C476        C  0.50473915  0.52113669  0.25220633    -0.15400
C477        C  0.74784426  0.76993594  0.60289354    -0.14600
C478        C  0.74503146  0.76919869  0.65052323     0.09500
C479        C  0.73884617  0.76464827  0.70574979     0.11300
C480        C  0.73047456  0.75545016  0.75114213    -0.15400
C481        C  0.86740623  0.61037503  0.85234332    -0.14600
C482        C  0.83869004  0.63317197  0.83463674     0.09500
C483        C  0.80228220  0.65777021  0.81756923     0.11300
C484        C  0.76883126  0.67751490  0.81187874    -0.15400
C485        C  0.60491956  0.89216202  0.87526524    -0.14600
C486        C  0.62603679  0.86315193  0.85847432     0.09500
C487        C  0.64825741  0.82726182  0.83936412     0.11300
C488        C  0.66544903  0.79389820  0.82873283    -0.15400
loop_ 
_geom_bond_atom_site_label_1 
_geom_bond_atom_site_label_2 
_geom_bond_distance 
_geom_bond_site_symmetry_2 
_ccdc_geom_bond_type 
N1            C5   1.351       .  A
N1            C2   1.353       .  A
N1          C114   1.408       .  S
C2            C3   1.380       .  A
C2          C122   1.441       .  S
C3            C4   1.376       .  A
C3            H6   1.082       .  S
C4            C5   1.376       .  A
C4            H7   1.078       .  S
C5          C118   1.442       .  S
Zn8          O17   2.030   1_556  S
Zn8          O24   2.048       .  S
Zn8         O257   2.024       .  S
Zn8         O134   1.936       .  S
Zn9          O14   2.007       .  S
Zn9          O20   2.023       .  S
Zn9         O138   2.024       .  S
Zn9         O256   1.928   1_455  S
Zn10         O15   2.029   1_556  S
Zn10         O21   1.996       .  S
Zn10        O262   2.042       .  S
Zn10         O12   1.934       .  S
Zn11         O19   2.043       .  S
Zn11         O22   2.029       .  S
Zn11        O145   2.006       .  S
Zn11         O12   1.937       .  S
O12        Zn130   1.939       .  S
O12        Zn253   1.929       .  S
O13        Zn252   2.013   1_455  S
O13          C25   1.272       .  A
O14          C26   1.271       .  A
O15          C27   1.277       .  A
O16        Zn131   2.025       .  S
O16          C25   1.275       .  A
O17         C149   1.276       .  A
O18        Zn254   2.037   1_455  S
O18          C26   1.276       .  A
O19          C28   1.276       .  A
O20         C273   1.276   1_455  A
O21          C28   1.270       .  A
O22          C29   1.276       .  A
O23        Zn133   2.007   1_545  S
O23          C30   1.272       .  A
O24          C30   1.278       .  A
C25         C102   1.435       .  S
C26         C119   1.438       .  S
C27         C107   1.441       .  S
C27         O139   1.277       .  A
C28          C95   1.435       .  S
C29         C106   1.439       .  S
C29         O264   1.276       .  A
C30         C115   1.439       .  S
N31          C35   1.348   1_554  A
N31          C32   1.350   1_554  A
N31          C91   1.406       .  S
C32          C33   1.379       .  A
C32          C98   1.439       .  S
C33          C34   1.378       .  A
C33          H36   1.082       .  S
C34          C35   1.380       .  A
C34          H37   1.082       .  S
C35          C99   1.439   1_556  S
N38         C286   1.354       .  A
N38         C161   1.353       .  A
N38         C110   1.407       .  S
C39         N160   1.351       .  A
C39          C40   1.377       .  A
C39          C83   1.443       .  S
C40         C407   1.376       .  A
C40          H43   1.081       .  S
C41          C42   1.380       .  A
C41         C406   1.376       .  A
C41          H44   1.082       .  S
C42         N282   1.354       .  A
C42          C87   1.444       .  S
Zn45         O50   1.993       .  S
Zn45         O54   2.033       .  S
Zn45         O61   2.048       .  S
Zn45         O49   1.933       .  S
Zn46         O51   2.026       .  S
Zn46         O53   2.054       .  S
Zn46         O57   2.035       .  S
Zn46         O49   1.942       .  S
Zn47         O52   2.028       .  S
Zn47         O55   2.031       .  S
Zn47         O58   2.007       .  S
Zn47         O49   1.931       .  S
Zn48         O56   2.026       .  S
Zn48         O59   2.016       .  S
Zn48         O60   2.005       .  S
Zn48         O49   1.927       .  S
O50          C62   1.270       .  A
O51          C63   1.273       .  A
O52          C64   1.276       .  A
O53          C62   1.279       .  A
O54          C64   1.277       .  A
O55          C63   1.276       .  A
O56          C65   1.274       .  A
O57          C66   1.277       .  A
O58          C65   1.271       .  A
O59          C66   1.275       .  A
O60          C67   1.270       .  A
O61          C67   1.276       .  A
C62          C75   1.436       .  S
C63          C86   1.441       .  S
C64         C111   1.441       .  S
C65          C82   1.435       .  S
C66          C94   1.438       .  S
C67          C90   1.441       .  S
N68          C69   1.352       .  A
N68         C438   1.351       .  A
N68         C103   1.407       .  S
C69          C70   1.379       .  A
C69          C79   1.440       .  S
C70         C437   1.376       .  A
C70          H73   1.082       .  S
C71          C72   1.378       .  A
C71         C436   1.377       .  A
C71          H74   1.081       .  S
C72         N434   1.348       .  A
C72          C78   1.439   1_565  S
C75          C76   1.206       .  T
C76          C77   1.413       .  S
C77          C78   1.205       .  T
C79          C80   1.206       .  T
C80          C81   1.413       .  S
C81          C82   1.206       .  T
C83          C84   1.208       .  T
C84          C85   1.417       .  S
C85          C86   1.209       .  T
C87          C88   1.209       .  T
C88          C89   1.417       .  S
C89          C90   1.209       .  T
C91          C92   1.207       .  T
C92          C93   1.414       .  S
C93          C94   1.207       .  T
C95          C96   1.206       .  T
C96          C97   1.413       .  S
C97          C98   1.206       .  T
C99         C100   1.205   1_554  T
C100        C101   1.412       .  S
C101        C102   1.206       .  T
C103        C104   1.208       .  T
C104        C105   1.415       .  S
C105        C106   1.208       .  T
C107        C108   1.209       .  T
C108        C231   1.416       .  S
C109        C354   1.209       .  T
C109        C230   1.417       .  S
C110        C353   1.208   1_455  T
C111        C112   1.209       .  T
C112        C113   1.417       .  S
C113        C114   1.209       .  T
C115        C116   1.208       .  T
C116        C117   1.416       .  S
C117        C118   1.207       .  T
C119        C120   1.207       .  T
C120        C121   1.415       .  S
C121        C122   1.207       .  T
N123        C127   1.352       .  A
N123        C124   1.356       .  A
N123        C236   1.409       .  S
C124        C125   1.380       .  A
C124        C244   1.445       .  S
C125        C126   1.376       .  A
C125        H128   1.082       .  S
C126        C127   1.378       .  A
C126        H129   1.081       .  S
C127        C240   1.443       .  S
Zn130       O379   2.022       .  S
Zn130       O139   2.034   1_556  S
Zn130       O146   2.052       .  S
Zn131       O136   2.014   1_545  S
Zn131       O142   2.026       .  S
Zn131       O378   1.929   1_445  S
Zn132       O137   2.035   1_556  S
Zn132       O384   2.040       .  S
Zn132       O143   1.997       .  S
Zn132       O134   1.936   1_565  S
Zn133       O141   2.041       .  S
Zn133       O144   2.028       .  S
Zn133       O134   1.937   1_565  S
O134       Zn375   1.930       .  S
O135       Zn374   2.020   1_455  S
O135        C147   1.273       .  A
O136        C148   1.271       .  A
O137        C149   1.277   1_565  A
O138        C147   1.274       .  A
O140       Zn376   2.048       .  S
O140        C148   1.277       .  A
O141        C150   1.276       .  A
O142        C395   1.276   1_455  A
O143        C150   1.270       .  A
O144        C151   1.276   1_565  A
O145        C152   1.271       .  A
O146        C152   1.278       .  A
C147        C224   1.437       .  S
C148        C241   1.443       .  S
C149        C229   1.442       .  S
C150        C217   1.436       .  S
C151        C228   1.438       .  S
C151        O386   1.276       .  A
C152        C237   1.440       .  S
N153        C157   1.349   1_554  A
N153        C154   1.351   1_554  A
N153        C213   1.407       .  S
C154        C155   1.379       .  A
C154        C220   1.440       .  S
C155        C156   1.378       .  A
C155        H158   1.082       .  S
C156        C157   1.378       .  A
C156        H159   1.081       .  S
C157        C221   1.440       .  S
N160        C408   1.354       .  A
N160        C232   1.407   1_455  S
C161        C162   1.378       .  A
C161        C205   1.446   1_545  S
C162        C285   1.377       .  A
C162        H165   1.082       .  S
C163        C284   1.377       .  A
C163        C164   1.378       .  A
C163        H166   1.082       .  S
C164        N404   1.353       .  A
C164        C209   1.443       .  S
Zn167       O172   2.001       .  S
Zn167       O176   2.043       .  S
Zn167       O183   2.051       .  S
Zn167       O171   1.942       .  S
Zn168       O173   2.035       .  S
Zn168       O175   2.053       .  S
Zn168       O179   2.039       .  S
Zn168       O171   1.943       .  S
Zn169       O174   2.027       .  S
Zn169       O177   2.030       .  S
Zn169       O180   2.003       .  S
Zn169       O171   1.932       .  S
Zn170       O178   2.024       .  S
Zn170       O181   2.023       .  S
Zn170       O182   2.004       .  S
Zn170       O171   1.933       .  S
O172        C184   1.271       .  A
O173        C185   1.275       .  A
O174        C186   1.276       .  A
O175        C184   1.279       .  A
O176        C186   1.278       .  A
O177        C185   1.275       .  A
O178        C187   1.274       .  A
O179        C188   1.277       .  A
O180        C187   1.271       .  A
O181        C188   1.275       .  A
O182        C189   1.270       .  A
O183        C189   1.277       .  A
C184        C197   1.438       .  S
C185        C208   1.443       .  S
C186        C233   1.444       .  S
C187        C204   1.433       .  S
C188        C216   1.441       .  S
C189        C212   1.440       .  S
N190        C316   1.349       .  A
N190        C191   1.349       .  A
N190        C225   1.406       .  S
C191        C192   1.377       .  A
C191        C201   1.437       .  S
C192        C315   1.378       .  A
C192        H195   1.081       .  S
C193        C314   1.377       .  A
C193        C194   1.379       .  A
C193        H196   1.082       .  S
C194        N312   1.351       .  A
C194        C200   1.441       .  S
C197        C198   1.208       .  T
C198        C199   1.415       .  S
C199        C200   1.207       .  T
C201        C202   1.204       .  T
C202        C203   1.410       .  S
C203        C204   1.205       .  T
C205        C206   1.210       .  T
C206        C207   1.420       .  S
C207        C208   1.211       .  T
C209        C210   1.208       .  T
C210        C211   1.417       .  S
C211        C212   1.209       .  T
C213        C214   1.208       .  T
C214        C215   1.416       .  S
C215        C216   1.209       .  T
C217        C218   1.206       .  T
C218        C219   1.413       .  S
C219        C220   1.206       .  T
C221        C222   1.206       .  T
C222        C223   1.414       .  S
C223        C224   1.207       .  T
C225        C226   1.207   1_565  T
C226        C227   1.414       .  S
C227        C228   1.207       .  T
C229        C230   1.209       .  T
C231        C476   1.208       .  T
C232        C475   1.208       .  T
C233        C234   1.211       .  T
C234        C235   1.420       .  S
C235        C236   1.210       .  T
C237        C238   1.209       .  T
C238        C239   1.417       .  S
C239        C240   1.208       .  T
C241        C242   1.211       .  T
C242        C243   1.420       .  S
C243        C244   1.210       .  T
N245        C249   1.351       .  A
N245        C246   1.355       .  A
N245        C358   1.408       .  S
C246        C247   1.380       .  A
C246        C366   1.443       .  S
C247        C248   1.376       .  A
C247        H250   1.082       .  S
C248        C249   1.377       .  A
C248        H251   1.079       .  S
C249        C362   1.442       .  S
Zn252       O261   2.030   1_556  S
Zn252       O268   2.045       .  S
Zn252       O378   1.938   1_545  S
Zn253       O258   2.011       .  S
Zn253       O382   2.026       .  S
Zn253       O264   2.025       .  S
Zn254       O259   2.032   1_656  S
Zn254       O265   1.999       .  S
Zn254       O256   1.931       .  S
Zn255       O263   2.049       .  S
Zn255       O266   2.036       .  S
Zn255       O389   2.004       .  S
Zn255       O256   1.936       .  S
O256       Zn374   1.935       .  S
O257        C269   1.273       .  A
O258        C270   1.271       .  A
O259        C271   1.277   1_455  A
O260       Zn375   2.026       .  S
O260        C269   1.275       .  A
O261        C393   1.276       .  A
O262        C270   1.276       .  A
O263        C272   1.277       .  A
O265        C272   1.270       .  A
O266        C273   1.277       .  A
O267       Zn377   2.007   1_545  S
O267        C274   1.271       .  A
O268        C274   1.277       .  A
C269        C346   1.439       .  S
C270        C363   1.440       .  S
C271        C351   1.441       .  S
C271        O383   1.276       .  A
C272        C339   1.439       .  S
C273        C350   1.440       .  S
C274        C359   1.439       .  S
N275        C279   1.350   1_554  A
N275        C276   1.352   1_554  A
N275        C335   1.407       .  S
C276        C277   1.380       .  A
C276        C342   1.442       .  S
C277        C278   1.377       .  A
C277        H280   1.082       .  S
C278        C279   1.379       .  A
C278        H281   1.081       .  S
C279        C343   1.442       .  S
N282        C405   1.351       .  A
N282        C354   1.408       .  S
C283        N404   1.351       .  A
C283        C284   1.380       .  A
C283        C327   1.443       .  S
C284        H287   1.082       .  S
C285        C286   1.379       .  A
C285        H288   1.082       .  S
C286        C331   1.446   1_455  S
Zn289       O294   2.002       .  S
Zn289       O298   2.041       .  S
Zn289       O305   2.054       .  S
Zn289       O293   1.939       .  S
Zn290       O295   2.023       .  S
Zn290       O297   2.046       .  S
Zn290       O301   2.034       .  S
Zn290       O293   1.943       .  S
Zn291       O296   2.026       .  S
Zn291       O299   2.030       .  S
Zn291       O302   2.004       .  S
Zn291       O293   1.933       .  S
Zn292       O300   2.028       .  S
Zn292       O303   2.022       .  S
Zn292       O304   2.009       .  S
Zn292       O293   1.932       .  S
O294        C306   1.271       .  A
O295        C307   1.273       .  A
O296        C308   1.276       .  A
O297        C306   1.278       .  A
O298        C308   1.278       .  A
O299        C307   1.275       .  A
O300        C309   1.275       .  A
O301        C310   1.277       .  A
O302        C309   1.271       .  A
O303        C310   1.275       .  A
O304        C311   1.271       .  A
O305        C311   1.277       .  A
C306        C319   1.436       .  S
C307        C330   1.440       .  S
C308        C355   1.442       .  S
C309        C326   1.434       .  S
C310        C338   1.440       .  S
C311        C334   1.443       .  S
N312        C313   1.351       .  A
N312        C347   1.407       .  S
C313        C314   1.378       .  A
C313        C323   1.439   1_455  S
C314        H317   1.081       .  S
C315        C316   1.380       .  A
C315        H318   1.082       .  S
C316        C322   1.439   1_565  S
C319        C320   1.206       .  T
C320        C321   1.413       .  S
C321        C322   1.206       .  T
C323        C324   1.205       .  T
C324        C325   1.412       .  S
C325        C326   1.205       .  T
C327        C328   1.208       .  T
C328        C329   1.417       .  S
C329        C330   1.209       .  T
C331        C332   1.210       .  T
C332        C333   1.420       .  S
C333        C334   1.210       .  T
C335        C336   1.208       .  T
C336        C337   1.416       .  S
C337        C338   1.208       .  T
C339        C340   1.208       .  T
C340        C341   1.416       .  S
C341        C342   1.208       .  T
C343        C344   1.207       .  T
C344        C345   1.415       .  S
C345        C346   1.208       .  T
C347        C348   1.208       .  T
C348        C349   1.416   1_455  S
C349        C350   1.208       .  T
C351        C352   1.209       .  T
C352        C475   1.417       .  S
C353        C474   1.417       .  S
C355        C356   1.210       .  T
C356        C357   1.418       .  S
C357        C358   1.209       .  T
C359        C360   1.208       .  T
C360        C361   1.416       .  S
C361        C362   1.207       .  T
C363        C364   1.209       .  T
C364        C365   1.417       .  S
C365        C366   1.208       .  T
N367        C371   1.350       .  A
N367        C368   1.353       .  A
N367        C480   1.407       .  S
C368        C369   1.380       .  A
C368        C488   1.440       .  S
C369        C370   1.375       .  A
C369        H372   1.083       .  S
C370        C371   1.377       .  A
C370        H373   1.080       .  S
C371        C484   1.439       .  S
Zn374       O383   2.028   1_556  S
Zn374       O390   2.040       .  S
Zn375       O380   2.003   1_545  S
Zn375       O386   2.024       .  S
Zn376       O381   2.033   1_556  S
Zn376       O387   1.998   1_455  S
Zn376       O378   1.936   1_455  S
Zn377       O385   2.036       .  S
Zn377       O388   2.023       .  S
Zn377       O378   1.935       .  S
O379        C391   1.273       .  A
O380        C392   1.270       .  A
O381        C393   1.277   1_465  A
O382        C391   1.275       .  A
O384        C392   1.276       .  A
O385        C394   1.276       .  A
O387        C394   1.270       .  A
O388        C395   1.275   1_565  A
O389        C396   1.271       .  A
O390        C396   1.277       .  A
C391        C468   1.438       .  S
C392        C485   1.438       .  S
C393        C473   1.441       .  S
C394        C461   1.434       .  S
C395        C472   1.438       .  S
C396        C481   1.436       .  S
N397        C401   1.349   1_554  A
N397        C398   1.350   1_554  A
N397        C457   1.406       .  S
C398        C399   1.379       .  A
C398        C464   1.439       .  S
C399        C400   1.378       .  A
C399        H402   1.082       .  S
C400        C401   1.380       .  A
C400        H403   1.082       .  S
C401        C465   1.441       .  S
N404        C476   1.407       .  S
C405        C406   1.377       .  A
C405        C449   1.443   1_545  S
C406        H409   1.080       .  S
C407        C408   1.380       .  A
C407        H410   1.083       .  S
C408        C453   1.444   1_455  S
Zn411       O416   2.008       .  S
Zn411       O420   2.040       .  S
Zn411       O427   2.052       .  S
Zn411       O415   1.938       .  S
Zn412       O417   2.026       .  S
Zn412       O419   2.050       .  S
Zn412       O423   2.033       .  S
Zn412       O415   1.942       .  S
Zn413       O418   2.022       .  S
Zn413       O421   2.027       .  S
Zn413       O424   2.002       .  S
Zn413       O415   1.932       .  S
Zn414       O422   2.027       .  S
Zn414       O425   2.021       .  S
Zn414       O426   2.006       .  S
Zn414       O415   1.932       .  S
O416        C428   1.272       .  A
O417        C429   1.273       .  A
O418        C430   1.275       .  A
O419        C428   1.278       .  A
O420        C430   1.277       .  A
O421        C429   1.275       .  A
O422        C431   1.274       .  A
O423        C432   1.277       .  A
O424        C431   1.270       .  A
O425        C432   1.275       .  A
O426        C433   1.271       .  A
O427        C433   1.277       .  A
C428        C441   1.439       .  S
C429        C452   1.440       .  S
C430        C477   1.441       .  S
C431        C448   1.434       .  S
C432        C460   1.438       .  S
C433        C456   1.441       .  S
N434        C435   1.350       .  A
N434        C469   1.406       .  S
C435        C436   1.379       .  A
C435        C445   1.438   1_455  S
C436        H439   1.082       .  S
C437        C438   1.377       .  A
C437        H440   1.080       .  S
C438        C444   1.442       .  S
C441        C442   1.208       .  T
C442        C443   1.416       .  S
C443        C444   1.207       .  T
C445        C446   1.205       .  T
C446        C447   1.411       .  S
C447        C448   1.205       .  T
C449        C450   1.208       .  T
C450        C451   1.416       .  S
C451        C452   1.208       .  T
C453        C454   1.209       .  T
C454        C455   1.418       .  S
C455        C456   1.210       .  T
C457        C458   1.207       .  T
C458        C459   1.414       .  S
C459        C460   1.207       .  T
C461        C462   1.205       .  T
C462        C463   1.412       .  S
C463        C464   1.205       .  T
C465        C466   1.206       .  T
C466        C467   1.414       .  S
C467        C468   1.207       .  T
C469        C470   1.207   1_465  T
C470        C471   1.414       .  S
C471        C472   1.207       .  T
C473        C474   1.209       .  T
C477        C478   1.209       .  T
C478        C479   1.417       .  S
C479        C480   1.209       .  T
C481        C482   1.206       .  T
C482        C483   1.413       .  S
C483        C484   1.205       .  T
C485        C486   1.207       .  T
C486        C487   1.414       .  S
C487        C488   1.207       .  T
