geometry optimzed in LAMMPS
_audit_creation_date              2020-12-01 
_audit_creation_method            'lammps2cif' 
_symmetry_space_group_name_H-M    'P1' 
_symmetry_Int_Tables_number       1 
_symmetry_cell_setting            triclinic 
loop_ 
_symmetry_equiv_pos_as_xyz 
  x,y,z 
_cell_length_a                    38.6068322 
_cell_length_b                    33.7224256440756 
_cell_length_c                    34.39542701519623 
_cell_angle_alpha                 89.6175036574347 
_cell_angle_beta                  89.52701298723674 
_cell_angle_gamma                 90.01980232177151 
loop_ 
_atom_site_label 
_atom_site_type_symbol 
_atom_site_fract_x 
_atom_site_fract_y 
_atom_site_fract_z 
_atom_site_charge 
Zn1        Zn  0.04952081  0.00139077  0.03686864     1.49700
Zn2        Zn  0.01008845  0.45289080  0.97145174     1.49400
Zn3        Zn  0.46729071  0.00128337  0.03732185     1.49100
Zn4        Zn  0.00940116  0.04801116  0.96907247     1.49500
O5          O  0.00926736  0.00108840  0.00323550    -1.84300
O6          O  0.07819154  0.45500012  0.03009380    -0.74900
O7          O  0.46772080  0.41934026  0.98000662    -0.74700
O8          O  0.47810326  0.50215166  0.09207893    -0.74200
O9          O  0.05332848  0.42104504  0.98288082    -0.74900
O10         O  0.03346132  0.50272887  0.09564033    -0.74500
O11         O  0.43897143  0.45463093  0.02392876    -0.75100
O12         O  0.46479564  0.07915675  0.97672704    -0.74500
O13         O  0.01065549  0.46674561  0.91402607    -0.75200
O14         O  0.43593981  0.04507483  0.02185332    -0.74600
O15         O  0.01102382  0.03249386  0.91241082    -0.75100
O16         O  0.05152301  0.08241297  0.97897294    -0.75000
O17         O  0.07915641  0.04769408  0.02403643    -0.74800
C18         C  0.07802686  0.42593893  0.00680983     0.77000
C19         C  0.44135647  0.42469059  0.00192271     0.77500
C20         C  0.50620165  0.50252148  0.11118064     0.76400
C21         C  0.43755457  0.07313530  0.99707168     0.76800
C22         C  0.00962472  0.99946298  0.89480452     0.77900
C23         C  0.07748088  0.07732038  0.00119224     0.77000
N24         N  0.31176675  0.25080753  0.98660080    -0.36800
N25         N  0.25838417  0.19051557  0.98617473    -0.57300
N26         N  0.20683308  0.25236365  0.99042697    -0.36700
N27         N  0.25995891  0.31267318  0.99433174    -0.57300
C28         C  0.33086797  0.21788804  0.99318179     0.26800
C29         C  0.33174602  0.28217793  0.99593002     0.26800
C30         C  0.18725191  0.21993631  0.99774585     0.26800
C31         C  0.18815440  0.28401982  0.00212410     0.26800
C32         C  0.28601738  0.16709102  0.97929629     0.35400
C33         C  0.23004315  0.16810927  0.98005037     0.35500
C34         C  0.28807701  0.33581976  0.98871468     0.35400
C35         C  0.23210620  0.33658831  0.99102596     0.35500
C36         C  0.36338070  0.22853914  0.00649991    -0.22000
C37         C  0.36397438  0.26909756  0.00809227    -0.22000
C38         C  0.15586347  0.23112806  0.01425655    -0.22000
C39         C  0.15642782  0.27160997  0.01698467    -0.22000
C40         C  0.27526697  0.12942207  0.96895980    -0.23100
C41         C  0.23963345  0.13010527  0.96931934    -0.23100
C42         C  0.27813201  0.37481396  0.98244519    -0.23100
C43         C  0.24250418  0.37528829  0.98385347    -0.23100
C44         C  0.32058538  0.17851574  0.98566551    -0.18400
C45         C  0.32253860  0.32242550  0.99161554    -0.18400
C46         C  0.19760890  0.32400001  0.99655132    -0.18400
C47         C  0.19587781  0.18074382  0.98752360    -0.18400
H48         H  0.38466547  0.20913420  0.01399944     0.14500
H49         H  0.38579309  0.28691044  0.01703715     0.14500
H50         H  0.13448639  0.21216658  0.02290315     0.14500
H51         H  0.13556804  0.28988684  0.02804647     0.14500
H52         H  0.29139874  0.10399019  0.96262084     0.12800
H53         H  0.22274455  0.10528868  0.96337012     0.12800
H54         H  0.29480662  0.40022558  0.97768960     0.12800
H55         H  0.22616176  0.40112554  0.98041562     0.12800
H56         H  0.28816934  0.25208490  0.97238532     0.26000
H57         H  0.22935343  0.25326574  0.97369938     0.26000
C58         C  0.99663090  0.99792029  0.72645346     0.80100
N59         N  0.99433876  0.46519722  0.70702898    -0.78200
C60         C  0.98935492  0.46541661  0.66800163     0.82500
N61         N  0.98646083  0.99965485  0.64824612    -0.78200
C62         C  0.98933130  0.03431431  0.66812736     0.82600
N63         N  0.99501294  0.03319597  0.70707744    -0.79900
C64         C  0.99741105  0.00196964  0.28073155     0.80100
N65         N  0.99318830  0.03615692  0.30091241    -0.78200
C66         C  0.98762197  0.03531081  0.33996582     0.82500
N67         N  0.98625424  0.99957907  0.35884320    -0.78200
C68         C  0.98745222  0.46447137  0.33921619     0.82600
N69         N  0.99243490  0.46546905  0.30007961    -0.79900
N70         N  0.98814551  0.19036867  0.50438728    -0.36800
N71         N  0.98917037  0.25037726  0.56500545    -0.57300
N72         N  0.98744971  0.30982676  0.50406621    -0.36700
N73         N  0.98888549  0.24990436  0.44358139    -0.57300
C74         C  0.99688096  0.16864517  0.53606732     0.26800
C75         C  0.99637604  0.16846822  0.47274056     0.26800
C76         C  0.99550982  0.33181060  0.53553642     0.26800
C77         C  0.99593915  0.33165894  0.47221549     0.26800
C78         C  0.98304799  0.21790193  0.58732461     0.35400
C79         C  0.98202266  0.28244948  0.58713408     0.35500
C80         C  0.98227172  0.21776554  0.42152949     0.35400
C81         C  0.98237737  0.28221298  0.42136872     0.35500
C82         C  0.01120879  0.13289378  0.52438167    -0.22000
C83         C  0.01092056  0.13280107  0.48447918    -0.22000
C84         C  0.00984758  0.36761164  0.52350072    -0.22000
C85         C  0.00997111  0.36758706  0.48357979    -0.22000
C86         C  0.97233979  0.22933012  0.62413432    -0.23100
C87         C  0.97159865  0.27029887  0.62398925    -0.23100
C88         C  0.97168633  0.22968702  0.38486527    -0.23100
C89         C  0.97187165  0.27064105  0.38472226    -0.23100
C90         C  0.98916703  0.17840615  0.57517222    -0.18400
C91         C  0.98822660  0.17816022  0.43374253    -0.18400
C92         C  0.98830809  0.32169273  0.43331261    -0.18400
C93         C  0.98672390  0.32227222  0.57456450    -0.18400
H94         H  0.02026662  0.10893609  0.54276031     0.14500
H95         H  0.01975890  0.10879459  0.46617291     0.14500
H96         H  0.01841411  0.39176503  0.54162950     0.14500
H97         H  0.01870014  0.39168978  0.46500686     0.14500
H98         H  0.96604559  0.21018240  0.64856339     0.12800
H99         H  0.96453472  0.28893749  0.64828118     0.12800
H100        H  0.46668835  0.21140815  0.35907553     0.12800
H101        H  0.46860299  0.29020290  0.35848446     0.12800
H102        H  0.97312598  0.21597284  0.50451618     0.26000
H103        H  0.97251476  0.28414443  0.50427498     0.26000
C104        C  0.98548083  0.42583980  0.35997619    -0.06300
C105        C  0.01327455  0.39914072  0.35658507    -0.17400
C106        C  0.01444314  0.36416182  0.37895701     0.10900
C107        C  0.98673745  0.35496760  0.40459729    -0.06200
C108        C  0.46136196  0.38211994  0.40673903    -0.17400
C109        C  0.46012748  0.41727018  0.38481657     0.11000
S110        S  0.05253973  0.33349051  0.37456164    -0.32400
S111        S  0.42203976  0.44766656  0.38995092    -0.32400
H112        H  0.42218767  0.46169899  0.35134297     0.29000
H113        H  0.05240024  0.31874409  0.41285064     0.29000
H114        H  0.03499138  0.40648561  0.33770727     0.19600
H115        H  0.44051246  0.37555263  0.42708360     0.19600
C116        C  0.98520136  0.07333853  0.36169518    -0.06300
C117        C  0.00951196  0.10346423  0.35352840    -0.17400
C118        C  0.01067695  0.13843392  0.37552470     0.10900
C119        C  0.98608708  0.14450383  0.40560992    -0.06200
C120        C  0.45789990  0.11852347  0.40794511    -0.17400
C121        C  0.45692181  0.08336147  0.38652323     0.11000
S122        S  0.04528345  0.17293036  0.36508742    -0.32400
S123        S  0.41914875  0.05245862  0.39207236    -0.32400
H124        H  0.41927561  0.03876867  0.35353188     0.29000
H125        H  0.04998368  0.18538498  0.40359568     0.29000
H126        H  0.02893033  0.09887377  0.33107667     0.19600
H127        H  0.43699141  0.12490190  0.42818012     0.19600
C128        C  0.98743938  0.14472831  0.60365872    -0.06300
C129        C  0.45615322  0.11627128  0.59815368    -0.17400
C130        C  0.45486761  0.08101314  0.62000901     0.10900
C131        C  0.98685941  0.07306425  0.64746126    -0.06200
C132        C  0.01293393  0.10160817  0.65289533    -0.17400
C133        C  0.01391731  0.13684905  0.63081501     0.11000
S134        S  0.41933565  0.04761024  0.61119788    -0.32400
S135        S  0.05054161  0.16932972  0.63726946    -0.32400
H136        H  0.05202020  0.18406303  0.59899067     0.29000
H137        H  0.41674857  0.03343947  0.64966952     0.29000
H138        H  0.43663229  0.12156405  0.57625305     0.19600
H139        H  0.03371686  0.09547716  0.67305212     0.19600
C140        C  0.98802728  0.42729368  0.64624036    -0.06300
C141        C  0.46544489  0.42184160  0.61540736    -0.17400
C142        C  0.46261568  0.38666341  0.59421756     0.10900
C143        C  0.98343186  0.35607513  0.60256796    -0.06200
C144        C  0.00731215  0.35953519  0.63290432    -0.17400
C145        C  0.00982803  0.39448788  0.65476094     0.11000
S146        S  0.42861932  0.38386827  0.55864270    -0.32400
S147        S  0.04305041  0.39597034  0.69123390    -0.32400
H148        H  0.05358042  0.43494578  0.68231547     0.29000
H149        H  0.42497867  0.34238487  0.56007568     0.29000
H150        H  0.44745249  0.44578961  0.60962543     0.19600
H151        H  0.02537698  0.33557102  0.63829374     0.19600
C152        C  0.40659416  0.09851887  0.99205126    -0.06300
C153        C  0.38281030  0.10092405  0.02317334    -0.17400
C154        C  0.35373731  0.12537251  0.02122429     0.10900
C155        C  0.34781701  0.14777060  0.98720734    -0.06200
C156        C  0.37055702  0.14435924  0.95547144    -0.17400
C157        C  0.39946617  0.11949371  0.95717513     0.11000
S158        S  0.32576116  0.12736932  0.06347057    -0.32400
S159        S  0.42512472  0.11494357  0.91340491    -0.32400
H160        H  0.42795636  0.07340100  0.91612888     0.29000
H161        H  0.31664277  0.16753487  0.05992810     0.29000
H162        H  0.38737263  0.08454478  0.04985533     0.19600
H163        H  0.36579120  0.16146167  0.92926078     0.19600
C164        C  0.10833619  0.39892342  0.00571370    -0.06300
C165        C  0.11538395  0.37860412  0.97098661    -0.17400
C166        C  0.14545200  0.35607027  0.96643461     0.10900
C167        C  0.16928083  0.35350288  0.99720280    -0.06200
C168        C  0.16254755  0.37360960  0.03187466    -0.17400
C169        C  0.13217033  0.39560458  0.03679058     0.11000
S170        S  0.15153917  0.33030901  0.92106772    -0.32400
S171        S  0.12452462  0.41604504  0.08434297    -0.32400
H172        H  0.08929365  0.40533057  0.08518635     0.29000
H173        H  0.18793184  0.32989858  0.92186291     0.29000
H174        H  0.09770433  0.38083480  0.94676806     0.19600
H175        H  0.18018184  0.37025597  0.05603988     0.19600
C176        C  0.10737908  0.10487795  0.99892741    -0.06300
C177        C  0.11230809  0.12742599  0.96476842    -0.17400
C178        C  0.14193699  0.15069339  0.95923993     0.10900
C179        C  0.16753423  0.15129206  0.98824951    -0.06200
C180        C  0.16288401  0.12891308  0.02223012    -0.17400
C181        C  0.13288837  0.10660246  0.02838455     0.11000
S182        S  0.14514867  0.17986053  0.91516801    -0.32400
S183        S  0.12807605  0.08363315  0.07562759    -0.32400
H184        H  0.09291543  0.09397410  0.07971399     0.29000
H185        H  0.18149257  0.18210998  0.91398478     0.29000
H186        H  0.09324229  0.12652878  0.94184789     0.19600
H187        H  0.18189532  0.13081807  0.04517276     0.19600
C188        C  0.41176993  0.39702444  0.00041651    -0.06300
C189        C  0.40326562  0.38018833  0.96449514    -0.17400
C190        C  0.37312157  0.35773754  0.96022279     0.10900
C191        C  0.35097832  0.35173619  0.99255173    -0.06200
C192        C  0.35934558  0.36838609  0.02841805    -0.17400
C193        C  0.38969900  0.39031794  0.03291115     0.11000
S194        S  0.36462035  0.33688436  0.91308009    -0.32400
S195        S  0.39971249  0.40662813  0.08138157    -0.32400
H196        H  0.43564003  0.40049328  0.07762765     0.29000
H197        H  0.32838851  0.33541803  0.91709338     0.29000
H198        H  0.41972708  0.38537032  0.93929288     0.19600
H199        H  0.34297548  0.36245815  0.05355160     0.17100
C200        C  0.00757294  0.00320438  0.15582052    -0.06300
C201        C  0.97991448  0.02308324  0.17405313    -0.17400
C202        C  0.97580412  0.02280661  0.21450629     0.10900
C203        C  0.00030355  0.00295684  0.23787912    -0.06200
C204        C  0.52754343  0.48517868  0.21843457    -0.17400
C205        C  0.53071588  0.48466072  0.17782129     0.11000
S206        S  0.93776099  0.04662420  0.23424218    -0.32400
S207        S  0.56800454  0.45975275  0.15791276    -0.32400
H208        H  0.54879076  0.43882541  0.13015398     0.29000
H209        H  0.43039435  0.01946404  0.26509799     0.29000
H210        H  0.96088167  0.03850643  0.15658461     0.19600
H211        H  0.54778232  0.47205613  0.23598432     0.19600
C212        C  0.00836447  0.99874446  0.85155858    -0.06300
C213        C  0.49171472  0.46683564  0.83288216    -0.17400
C214        C  0.48652285  0.46630961  0.79269060     0.10900
C215        C  0.00021074  0.99722686  0.76953367    -0.06200
C216        C  0.02016719  0.02683225  0.78726302    -0.17400
C217        C  0.02444375  0.02798447  0.82781945     0.11000
S218        S  0.45894076  0.42769815  0.77426397    -0.32400
S219        S  0.05188503  0.06578470  0.84840935    -0.32400
H220        H  0.05807510  0.08723159  0.81383345     0.29000
H221        H  0.44072181  0.45294435  0.74891095     0.29000
H222        H  0.47971076  0.44393133  0.85068230     0.19600
H223        H  0.03283612  0.04892034  0.76912401     0.19600
Zn224      Zn  0.04783363  0.50180769  0.03897774     1.49700
Zn225      Zn  0.00864975  0.95333745  0.97112464     1.49400
Zn226      Zn  0.46813776  0.50156849  0.03457181     1.49100
Zn227      Zn  0.00976704  0.54773762  0.96982224     1.49500
O228        O  0.00866928  0.50079742  0.00364580    -1.84300
O229        O  0.07938928  0.95488604  0.02587525    -0.74900
O230        O  0.46436049  0.92020251  0.98250115    -0.74700
O231        O  0.47842639  0.00469324  0.09424277    -0.74200
O232        O  0.05185361  0.92115908  0.98023962    -0.74900
O233        O  0.03791381  0.00216206  0.09460421    -0.74500
O234        O  0.43856814  0.95333307  0.03020176    -0.75100
O235        O  0.46596296  0.58058164  0.97473543    -0.74500
O236        O  0.00799269  0.96689480  0.91371194    -0.75200
O237        O  0.43819502  0.54735540  0.02147073    -0.74600
O238        O  0.01017771  0.53245719  0.91321645    -0.75100
O239        O  0.05307786  0.57967864  0.97877580    -0.75000
O240        O  0.07867654  0.54789795  0.02740673    -0.74800
C241        C  0.07771479  0.92594933  0.00253108     0.77000
C242        C  0.43956626  0.92443390  0.00681843     0.77500
C243        C  0.50666134  0.00261123  0.11298640     0.76400
C244        C  0.43962339  0.57554094  0.99683593     0.76800
C245        C  0.01046539  0.49952806  0.89537992     0.77900
C246        C  0.07816506  0.57572863  0.00234086     0.77000
N247        N  0.31086087  0.75138403  0.99316790    -0.36800
N248        N  0.25876057  0.68994272  0.98693376    -0.57300
N249        N  0.20556046  0.75096087  0.98232885    -0.36700
N250        N  0.25775531  0.81235178  0.99316379    -0.57300
C251        C  0.33069628  0.71896251  0.99915067     0.26800
C252        C  0.33007106  0.78325282  0.00279807     0.26800
C253        C  0.18564871  0.71840344  0.98802484     0.26800
C254        C  0.18520440  0.78282086  0.98905323     0.26800
C255        C  0.28713708  0.66680836  0.98359273     0.35400
C256        C  0.23115467  0.66630265  0.98091385     0.35500
C257        C  0.28582404  0.83622524  0.99282709     0.35400
C258        C  0.23016243  0.83595221  0.98674151     0.35500
C259        C  0.36305700  0.73046293  0.01227274    -0.22000
C260        C  0.36265323  0.77093789  0.01460155    -0.22000
C261        C  0.15207009  0.72984840  0.99734369    -0.22000
C262        C  0.15177912  0.77039566  0.99790772    -0.22000
C263        C  0.27750755  0.62812304  0.97559694    -0.23100
C264        C  0.24193974  0.62778110  0.97404299    -0.23100
C265        C  0.27599493  0.87529574  0.98683689    -0.23100
C266        C  0.24062083  0.87512291  0.98297077    -0.23100
C267        C  0.32130095  0.67937482  0.99117917    -0.18400
C268        C  0.32016758  0.82333262  0.99856950    -0.18400
C269        C  0.19546260  0.82298166  0.98682586    -0.18400
C270        C  0.19632572  0.67851291  0.98415928    -0.18400
H271        H  0.38501212  0.71177939  0.01899030     0.14500
H272        H  0.38424792  0.78916859  0.02339163     0.14500
H273        H  0.12994622  0.71099379  0.00333486     0.14500
H274        H  0.12944710  0.78860284  0.00454500     0.14500
H275        H  0.29428845  0.60264818  0.97225075     0.12800
H276        H  0.22583631  0.60208444  0.96894803     0.12800
H277        H  0.29257508  0.90116250  0.98541858     0.12800
H278        H  0.22442277  0.90086090  0.97818064     0.12800
H279        H  0.28735890  0.75205961  0.97882328     0.26000
H280        H  0.23057378  0.75159903  0.97102571     0.26000
C281        C  0.99435985  0.49946571  0.72757953     0.80100
N282        N  0.99483738  0.96357771  0.70602130    -0.78200
C283        C  0.98988454  0.96414995  0.66693272     0.82500
N284        N  0.98391833  0.50072103  0.64944244    -0.78200
C285        C  0.98480904  0.53548085  0.66947940     0.82600
N286        N  0.99063783  0.53462682  0.70841842    -0.79900
C287        C  0.99340203  0.50071598  0.28069745     0.80100
N288        N  0.99160139  0.53517497  0.30084397    -0.78200
C289        C  0.98737143  0.53462097  0.34007792     0.82500
N290        N  0.98481531  0.49915763  0.35913978    -0.78200
C291        C  0.99123385  0.96513176  0.33890660     0.82600
N292        N  0.99747828  0.96665042  0.29999614    -0.79900
N293        N  0.98808345  0.68969055  0.50403407    -0.36800
N294        N  0.98551860  0.75024194  0.56347352    -0.57300
N295        N  0.98658210  0.80954552  0.50171941    -0.36700
N296        N  0.99196401  0.74891065  0.44227680    -0.57300
C297        C  0.99433534  0.66796291  0.53648327     0.26800
C298        C  0.99797971  0.66744087  0.47325668     0.26800
C299        C  0.99302883  0.83203789  0.53335350     0.26800
C300        C  0.99588921  0.83127852  0.47004561     0.26800
C301        C  0.97864638  0.71819006  0.58615460     0.35400
C302        C  0.97851559  0.78272092  0.58504696     0.35500
C303        C  0.98727392  0.71628726  0.42028246     0.35400
C304        C  0.98636540  0.78073001  0.41901843     0.35500
C305        C  0.00875163  0.63181149  0.52616973    -0.22000
C306        C  0.01103625  0.63148477  0.48632700    -0.22000
C307        C  0.00688087  0.86817779  0.52158180    -0.22000
C308        C  0.00857151  0.86774595  0.48171549    -0.22000
C309        C  0.96747707  0.73033893  0.62256149    -0.23100
C310        C  0.96743313  0.77127930  0.62187678    -0.23100
C311        C  0.97907389  0.72740104  0.38259048    -0.23100
C312        C  0.97858187  0.76833589  0.38177158    -0.23100
C313        C  0.98478621  0.67839856  0.57492926    -0.18400
C314        C  0.99227465  0.67689581  0.43366154    -0.18400
C315        C  0.99055639  0.82058931  0.43080055    -0.18400
C316        C  0.98403051  0.82233118  0.57232291    -0.18400
H317        H  0.01624430  0.60778148  0.54534961     0.14500
H318        H  0.02051638  0.60713376  0.46887288     0.14500
H319        H  0.01437802  0.89271489  0.53981115     0.14500
H320        H  0.01762439  0.89185936  0.46335185     0.14500
H321        H  0.96062925  0.71168135  0.64716891     0.12800
H322        H  0.96040910  0.79040194  0.64582122     0.12800
H323        H  0.47222032  0.70940952  0.35892342     0.12800
H324        H  0.47073107  0.78813932  0.35825926     0.12800
H325        H  0.97353347  0.71558898  0.50271361     0.26000
H326        H  0.97245561  0.78328989  0.50148777     0.26000
C327        C  0.98927540  0.92602944  0.35904168    -0.06300
C328        C  0.01774497  0.90009593  0.35688829    -0.17400
C329        C  0.01837560  0.86432670  0.37817992     0.10900
C330        C  0.98954044  0.85368106  0.40169604    -0.06200
C331        C  0.45931873  0.88079099  0.40598970    -0.17400
C332        C  0.45853433  0.91630608  0.38464914     0.11000
S333        S  0.05715291  0.83456916  0.37492071    -0.32400
S334        S  0.42027579  0.94650771  0.38910034    -0.32400
H335        H  0.42112958  0.96078394  0.35058293     0.29000
H336        H  0.05413313  0.81514687  0.41100142     0.29000
H337        H  0.04025600  0.90852892  0.33970575     0.19600
H338        H  0.43798227  0.87380773  0.42554736     0.19600
C339        C  0.98685838  0.57244737  0.36183159    -0.06300
C340        C  0.01419280  0.59954864  0.35629475    -0.17400
C341        C  0.01653797  0.63422955  0.37855319     0.10900
C342        C  0.99027355  0.64292779  0.40609504    -0.06200
C343        C  0.46182921  0.61787533  0.40836273    -0.17400
C344        C  0.45995955  0.58347316  0.38585339     0.11000
S345        S  0.05429520  0.66505687  0.37154173    -0.32400
S346        S  0.42144469  0.55364645  0.39054736    -0.32400
H347        H  0.42126704  0.54099332  0.35165500     0.29000
H348        H  0.05597147  0.67912985  0.40983504     0.29000
H349        H  0.03468131  0.59279555  0.33565121     0.19600
H350        H  0.44110334  0.62427647  0.42882310     0.19600
C351        C  0.98223204  0.64530736  0.60407347    -0.06300
C352        C  0.45866725  0.61732942  0.60044322    -0.17400
C353        C  0.45782995  0.58195081  0.62211911     0.10900
C354        C  0.98159679  0.57417959  0.64877874    -0.06200
C355        C  0.00690077  0.60345428  0.65485482    -0.17400
C356        C  0.00790480  0.63840226  0.63239368     0.11000
S357        S  0.42110984  0.54962782  0.61581955    -0.32400
S358        S  0.04373627  0.67176602  0.63970572    -0.32400
H359        H  0.04757572  0.68340821  0.60059752     0.29000
H360        H  0.42089761  0.53452521  0.65404000     0.29000
H361        H  0.43815285  0.62332538  0.57990096     0.19600
H362        H  0.02727146  0.59803886  0.67571941     0.19600
C363        C  0.98759599  0.92637158  0.64492891    -0.06300
C364        C  0.45794760  0.92026825  0.61962444    -0.17400
C365        C  0.45543602  0.88513159  0.59818926     0.10900
C366        C  0.98184645  0.85579554  0.60071029    -0.06200
C367        C  0.00810786  0.86000004  0.62835137    -0.17400
C368        C  0.01136441  0.89481660  0.65022463     0.11000
S369        S  0.41958178  0.88071481  0.56517880    -0.32400
S370        S  0.04805659  0.89823520  0.68208861    -0.32400
H371        H  0.05500074  0.93840458  0.67389900     0.29000
H372        H  0.41852038  0.83904219  0.56525568     0.29000
H373        H  0.43847413  0.94307641  0.61578151     0.19600
H374        H  0.02738298  0.83685102  0.63135883     0.19600
C375        C  0.40928705  0.60202578  0.99408839    -0.06300
C376        C  0.39084391  0.61033139  0.02847569    -0.17400
C377        C  0.36094805  0.63353681  0.02806149     0.10900
C378        C  0.34926137  0.64943500  0.99249758    -0.06200
C379        C  0.36734526  0.64107246  0.95803294    -0.17400
C380        C  0.39687887  0.61706811  0.95830386     0.11000
S381        S  0.34018370  0.64376496  0.07412650    -0.32400
S382        S  0.41657738  0.60575118  0.91200103    -0.32400
H383        H  0.42210471  0.56543762  0.92074327     0.29000
H384        H  0.30668249  0.64967736  0.05962365     0.29000
H385        H  0.39991303  0.59879457  0.05606389     0.19600
H386        H  0.35843905  0.65356905  0.93077404     0.19600
C387        C  0.10755500  0.89885386  0.99952754    -0.06300
C388        C  0.11611706  0.88362647  0.96275734    -0.17400
C389        C  0.14596992  0.86096875  0.95712646     0.10900
C390        C  0.16767594  0.85299033  0.98897723    -0.06200
C391        C  0.15949433  0.86843017  0.02557244    -0.17400
C392        C  0.12952282  0.89075325  0.03136246     0.11000
S393        S  0.15458765  0.84237343  0.90895539    -0.32400
S394        S  0.11984975  0.90558970  0.08050910    -0.32400
H395        H  0.08397905  0.89903061  0.07751375     0.29000
H396        H  0.19067182  0.83911300  0.91297515     0.29000
H397        H  0.09983977  0.89008886  0.93798744     0.19600
H398        H  0.17568321  0.86120250  0.05023186     0.19600
C399        C  0.10844499  0.60239251  0.99873906    -0.06300
C400        C  0.11720313  0.61708712  0.96159222    -0.17400
C401        C  0.14706958  0.63971619  0.95542231     0.10900
C402        C  0.16891997  0.64791204  0.98698314    -0.06200
C403        C  0.16062819  0.63290775  0.02398224    -0.17400
C404        C  0.13039804  0.61094893  0.03039791     0.11000
S405        S  0.15515123  0.65863963  0.90702233    -0.32400
S406        S  0.12018771  0.59758289  0.08004172    -0.32400
H407        H  0.08443481  0.60477523  0.07656439     0.29000
H408        H  0.19127923  0.66184194  0.91043266     0.29000
H409        H  0.10089267  0.61051619  0.93695896     0.19600
H410        H  0.17676183  0.64051916  0.04848239     0.19600
C411        C  0.40979919  0.89714093  0.00602064    -0.06300
C412        C  0.39851807  0.88389637  0.96968441    -0.17400
C413        C  0.36808659  0.86196721  0.96616178     0.10900
C414        C  0.34826893  0.85303073  0.99972547    -0.06200
C415        C  0.35924288  0.86642446  0.03608875    -0.17400
C416        C  0.39011330  0.88767467  0.03972162     0.11000
S417        S  0.35693158  0.84489191  0.91821863    -0.32400
S418        S  0.40409132  0.89929637  0.08825739    -0.32400
H419        H  0.43964536  0.89454164  0.08020209     0.29000
H420        H  0.32121567  0.84038390  0.92458329     0.29000
H421        H  0.41318196  0.89131345  0.94362643     0.19600
H422        H  0.34470880  0.85817215  0.06200401     0.17100
C423        C  0.00194006  0.50163673  0.15581064    -0.06300
C424        C  0.97383180  0.52051117  0.17424699    -0.17400
C425        C  0.97021784  0.52037577  0.21482404     0.10900
C426        C  0.99548763  0.50143383  0.23787890    -0.06200
C427        C  0.52538158  0.98195036  0.22024852    -0.17400
C428        C  0.52905013  0.98151647  0.17967759     0.11000
S429        S  0.93222539  0.54371505  0.23527825    -0.32400
S430        S  0.56370370  0.95187477  0.15998184    -0.32400
H431        H  0.54308478  0.93434189  0.13125576     0.29000
H432        H  0.43069704  0.51182953  0.26605841     0.29000
H433        H  0.95435863  0.53534843  0.15691508     0.19600
H434        H  0.54386337  0.96590774  0.23794139     0.19600
C435        C  0.00876016  0.49915822  0.85218477    -0.06300
C436        C  0.48649090  0.96926471  0.83445239    -0.17400
C437        C  0.48111597  0.96857194  0.79427349     0.10900
C438        C  0.99867993  0.49862171  0.77050438    -0.06200
C439        C  0.01741256  0.52927730  0.78816875    -0.17400
C440        C  0.02263255  0.52993999  0.82857462     0.11000
S441        S  0.45265731  0.93059581  0.77628659    -0.32400
S442        S  0.04868257  0.56907794  0.84900155    -0.32400
H443        H  0.04952464  0.59356901  0.81573701     0.29000
H444        H  0.43522465  0.95596983  0.75035862     0.29000
H445        H  0.47418234  0.94669254  0.85239615     0.19600
H446        H  0.02852900  0.55248971  0.77009597     0.19600
Zn447      Zn  0.54790775  0.99979251  0.03767313     1.49700
Zn448      Zn  0.51061218  0.45277096  0.97026141     1.49400
Zn449      Zn  0.96904720  0.00159269  0.03737924     1.49100
Zn450      Zn  0.50883884  0.04749726  0.97004248     1.49500
O451        O  0.50790259  0.00032311  0.00371243    -1.84300
O452        O  0.57966083  0.45605395  0.02724168    -0.74900
O453        O  0.96723697  0.41934559  0.98051620    -0.74700
O454        O  0.97613543  0.50246751  0.09315161    -0.74200
O455        O  0.55406839  0.42107068  0.98126396    -0.74900
O456        O  0.53538553  0.50344860  0.09366163    -0.74500
O457        O  0.93814727  0.45381486  0.02483707    -0.75100
O458        O  0.96479180  0.07880116  0.97576228    -0.74500
O459        O  0.51113010  0.46602762  0.91282505    -0.75200
O460        O  0.93818846  0.04621070  0.02377402    -0.74600
O461        O  0.50988635  0.03267262  0.91315123    -0.75100
O462        O  0.55151661  0.08066788  0.98015862    -0.75000
O463        O  0.57863535  0.04553095  0.02530270    -0.74800
C464        C  0.57921472  0.42658942  0.00445144     0.77000
C465        C  0.94082425  0.42418713  0.00245280     0.77500
C466        C  0.00403749  0.50236454  0.11263368     0.76400
C467        C  0.93872397  0.07350794  0.99817878     0.76800
C468        C  0.50779404  0.99986000  0.89525488     0.77900
C469        C  0.57741374  0.07512956  0.00235571     0.77000
N470        N  0.81192560  0.24903354  0.98847804    -0.36800
N471        N  0.75822783  0.18886290  0.98803556    -0.57300
N472        N  0.70663767  0.25100863  0.98945034    -0.36700
N473        N  0.76018209  0.31119938  0.99339174    -0.57300
C474        C  0.83093673  0.21624938  0.99600863     0.26800
C475        C  0.83210538  0.28066719  0.99639305     0.26800
C476        C  0.68665722  0.21878515  0.99641429     0.26800
C477        C  0.68779193  0.28301971  0.99993017     0.26800
C478        C  0.78596787  0.16507033  0.98309882     0.35400
C479        C  0.72996959  0.16619779  0.98223956     0.35500
C480        C  0.78841757  0.33421546  0.98792306     0.35400
C481        C  0.73244695  0.33524793  0.98977942     0.35500
C482        C  0.86369753  0.22728077  0.00828373    -0.22000
C483        C  0.86444930  0.26786852  0.00844537    -0.22000
C484        C  0.65476039  0.23049794  0.01123805    -0.22000
C485        C  0.65547442  0.27102518  0.01343349    -0.22000
C486        C  0.77533264  0.12688881  0.97447438    -0.23100
C487        C  0.73973214  0.12764611  0.97375893    -0.23100
C488        C  0.77864398  0.37322263  0.98139922    -0.23100
C489        C  0.74304564  0.37387025  0.98255102    -0.23100
C490        C  0.82047705  0.17665275  0.98985444    -0.18400
C491        C  0.82285829  0.32083860  0.99125646    -0.18400
C492        C  0.69780710  0.32295670  0.99485779    -0.18400
C493        C  0.69560534  0.17917149  0.98796594    -0.18400
H494        H  0.88514613  0.20816483  0.01585521     0.14500
H495        H  0.88649838  0.28584646  0.01631856     0.14500
H496        H  0.63304340  0.21182012  0.01937823     0.14500
H497        H  0.63438313  0.28958359  0.02343219     0.14500
H498        H  0.79149206  0.10107523  0.96997397     0.12800
H499        H  0.72295820  0.10253481  0.96859558     0.12800
H500        H  0.79541914  0.39855225  0.97666479     0.12800
H501        H  0.72684149  0.39978014  0.97882668     0.12800
H502        H  0.78819500  0.24991461  0.97457684     0.26000
H503        H  0.72982607  0.25146044  0.97394597     0.26000
C504        C  0.49216671  0.99858001  0.72715976     0.80100
N505        N  0.49645773  0.46353292  0.70539127    -0.78200
C506        C  0.49160653  0.46412940  0.66635447     0.82500
N507        N  0.48133364  0.99955291  0.64906103    -0.78200
C508        C  0.48311141  0.03441075  0.66880280     0.82600
N509        N  0.48908177  0.03367658  0.70772095    -0.79900
C510        C  0.49544533  0.00168339  0.28113028     0.80100
N511        N  0.49205295  0.03614121  0.30099651    -0.78200
C512        C  0.48654679  0.03574740  0.34001873     0.82500
N513        N  0.48446283  0.00030863  0.35928714    -0.78200
C514        C  0.48956945  0.46572414  0.33827278     0.82600
N515        N  0.49557946  0.46650532  0.29927478    -0.79900
N516        N  0.48610866  0.19001006  0.50353851    -0.36800
N517        N  0.48879046  0.24947616  0.56376570    -0.57300
N518        N  0.49005995  0.30939281  0.50246396    -0.36700
N519        N  0.48972100  0.25013227  0.44237969    -0.57300
C520        C  0.49341685  0.16766733  0.53531278     0.26800
C521        C  0.49442173  0.16807740  0.47198155     0.26800
C522        C  0.49863240  0.33082219  0.53408246     0.26800
C523        C  0.49895813  0.33127560  0.47075902     0.26800
C524        C  0.48092607  0.21752627  0.58616507     0.35400
C525        C  0.48277932  0.28200410  0.58560068     0.35500
C526        C  0.48271024  0.21811400  0.42037889     0.35400
C527        C  0.48432614  0.28253823  0.41986052     0.35500
C528        C  0.50685607  0.13143737  0.52378267    -0.22000
C529        C  0.50749466  0.13169358  0.48387560    -0.22000
C530        C  0.51374907  0.36630787  0.52230802    -0.22000
C531        C  0.51383643  0.36664795  0.48237016    -0.22000
C532        C  0.47024861  0.22974357  0.62272375    -0.23100
C533        C  0.47137110  0.27068341  0.62235364    -0.23100
C534        C  0.47312550  0.23015671  0.38338932    -0.23100
C535        C  0.47412289  0.27110404  0.38307284    -0.23100
C536        C  0.48557060  0.17769238  0.57431500    -0.18400
C537        C  0.48755317  0.17840688  0.43282500    -0.18400
C538        C  0.49093105  0.32189375  0.43182093    -0.18400
C539        C  0.48922174  0.32144746  0.57295729    -0.18400
H540        H  0.51481623  0.10701967  0.54223426     0.14500
H541        H  0.51598246  0.10746567  0.46564643     0.14500
H542        H  0.52271436  0.39011140  0.54063500     0.14500
H543        H  0.52300924  0.39066626  0.46395820     0.14500
H544        H  0.46278979  0.21112401  0.64713855     0.12800
H545        H  0.46484522  0.28985219  0.64643192     0.12800
H546        H  0.96517150  0.21088686  0.36061944     0.12800
H547        H  0.96550884  0.28968465  0.36035752     0.12800
H548        H  0.47200649  0.21629415  0.50333094     0.26000
H549        H  0.47439242  0.28430164  0.50259436     0.26000
C550        C  0.48777398  0.42707208  0.35932614    -0.06300
C551        C  0.51492430  0.39966283  0.35460674    -0.17400
C552        C  0.51620367  0.36438965  0.37661357     0.10900
C553        C  0.48925118  0.35560169  0.40342644    -0.06200
C554        C  0.95822602  0.38071259  0.40649449    -0.17400
C555        C  0.95713026  0.41563116  0.38426671     0.11000
S556        S  0.55347418  0.33279591  0.36997093    -0.32400
S557        S  0.91848403  0.44536633  0.38760280    -0.32400
H558        H  0.92007117  0.45994117  0.34921576     0.29000
H559        H  0.55354981  0.31581982  0.40735409     0.29000
H560        H  0.53608558  0.40657182  0.33479699     0.19600
H561        H  0.93684703  0.37379081  0.42601361     0.19600
C562        C  0.48465997  0.07388772  0.36124223    -0.06300
C563        C  0.51172292  0.10143755  0.35630102    -0.17400
C564        C  0.51285597  0.13660078  0.37791557     0.10900
C565        C  0.48574943  0.14517095  0.40445829    -0.06200
C566        C  0.96073156  0.11528063  0.41238153    -0.17400
C567        C  0.95997907  0.08010657  0.39091828     0.11000
S568        S  0.55020638  0.16821511  0.37118021    -0.32400
S569        S  0.92560420  0.04561460  0.40170927    -0.32400
H570        H  0.92116213  0.03387532  0.36289865     0.29000
H571        H  0.55014784  0.18517640  0.40834413     0.29000
H572        H  0.53293496  0.09472132  0.33658805     0.19600
H573        H  0.94169772  0.11962602  0.43530403     0.19600
C574        C  0.48280992  0.14420076  0.60305337    -0.06300
C575        C  0.96053689  0.11700914  0.59964215    -0.17400
C576        C  0.95991050  0.08155620  0.62112865     0.10900
C577        C  0.48081365  0.07301555  0.64775147    -0.06200
C578        C  0.50644424  0.10185283  0.65411692    -0.17400
C579        C  0.50817849  0.13677437  0.63164071     0.11000
S580        S  0.92381843  0.04856148  0.61379414    -0.32400
S581        S  0.54455494  0.16927394  0.63940260    -0.32400
H582        H  0.54790912  0.18266792  0.60078885     0.29000
H583        H  0.92226284  0.03459466  0.65240278     0.29000
H584        H  0.94022359  0.12267355  0.57875925     0.19600
H585        H  0.52649060  0.09611344  0.67529622     0.19600
C586        C  0.49054164  0.42627577  0.64434985    -0.06300
C587        C  0.96340883  0.42320570  0.61672240    -0.17400
C588        C  0.96037413  0.38799206  0.59557414     0.10900
C589        C  0.48622273  0.35524355  0.60075563    -0.06200
C590        C  0.51070536  0.35908488  0.63038650    -0.17400
C591        C  0.51313201  0.39402814  0.65218077     0.11000
S592        S  0.92679933  0.38587857  0.55945239    -0.32400
S593        S  0.54716988  0.39629334  0.68766071    -0.32400
H594        H  0.55639743  0.43576791  0.67906177     0.29000
H595        H  0.92271969  0.34444794  0.56070466     0.29000
H596        H  0.94589689  0.44748515  0.61043027     0.19600
H597        H  0.52918728  0.33542567  0.63527863     0.19600
C598        C  0.90770813  0.09870821  0.99464326    -0.06300
C599        C  0.88908374  0.10754959  0.02874757    -0.17400
C600        C  0.85915087  0.13062402  0.02768950     0.10900
C601        C  0.84767777  0.14587733  0.99177143    -0.06200
C602        C  0.86562487  0.13638897  0.95751349    -0.17400
C603        C  0.89512478  0.11238443  0.95842854     0.11000
S604        S  0.83821473  0.14181556  0.07340107    -0.32400
S605        S  0.91464217  0.09941376  0.91244130    -0.32400
H606        H  0.92096836  0.05965360  0.92283262     0.29000
H607        H  0.80470711  0.14655966  0.05852574     0.29000
H608        H  0.89817887  0.09682299  0.05663362     0.19600
H609        H  0.85675697  0.14818664  0.92994718     0.19600
C610        C  0.60955406  0.39963401  0.00325535    -0.06300
C611        C  0.61706171  0.38001414  0.96825487    -0.17400
C612        C  0.64689652  0.35697631  0.96401575     0.10900
C613        C  0.66986889  0.35299521  0.99544169    -0.06200
C614        C  0.66281699  0.37267789  0.03028614    -0.17400
C615        C  0.63279385  0.39540794  0.03477874     0.11000
S616        S  0.65385882  0.33243873  0.91815842    -0.32400
S617        S  0.62471687  0.41565617  0.08231556    -0.32400
H618        H  0.58931544  0.40571643  0.08237644     0.29000
H619        H  0.69021639  0.33173097  0.91997177     0.29000
H620        H  0.59991043  0.38316347  0.94364884     0.19600
H621        H  0.67991478  0.36851787  0.05482095     0.19600
C622        C  0.60761472  0.10228679  0.99984371    -0.06300
C623        C  0.61232480  0.12487342  0.96565965    -0.17400
C624        C  0.64176162  0.14839428  0.95997991     0.10900
C625        C  0.66731311  0.14954974  0.98901064    -0.06200
C626        C  0.66300578  0.12695280  0.02293502    -0.17400
C627        C  0.63334363  0.10400091  0.02906698     0.11000
S628        S  0.64484636  0.17704542  0.91559179    -0.32400
S629        S  0.62933528  0.08003029  0.07590690    -0.32400
H630        H  0.59433912  0.09060286  0.08106487     0.29000
H631        H  0.68120838  0.17889107  0.91421589     0.29000
H632        H  0.59321021  0.12383098  0.94279665     0.19600
H633        H  0.68211364  0.12896511  0.04576417     0.19600
C634        C  0.91151906  0.39625305  0.00055844    -0.06300
C635        C  0.90197746  0.38154259  0.96407105    -0.17400
C636        C  0.87191274  0.35894871  0.95973417     0.10900
C637        C  0.85112741  0.35036021  0.99262806    -0.06200
C638        C  0.86049777  0.36502524  0.02902784    -0.17400
C639        C  0.89061743  0.38736090  0.03348179     0.11000
S640        S  0.86164810  0.34155104  0.91171096    -0.32400
S641        S  0.90180287  0.40161845  0.08224910    -0.32400
H642        H  0.93775756  0.39720460  0.07679839     0.29000
H643        H  0.82556180  0.34033686  0.91715614     0.29000
H644        H  0.91748253  0.38864745  0.93854715     0.19600
H645        H  0.84504379  0.35736187  0.05444442     0.17100
C646        C  0.50513606  0.00252210  0.15621239    -0.06300
C647        C  0.47781512  0.02292069  0.17453504    -0.17400
C648        C  0.47378457  0.02263933  0.21500685     0.10900
C649        C  0.49805455  0.00230001  0.23828231    -0.06200
C650        C  0.02341891  0.48243525  0.21968902    -0.17400
C651        C  0.02682606  0.48206036  0.17915075     0.11000
S652        S  0.43614640  0.04713809  0.23493576    -0.32400
S653        S  0.06261748  0.45435767  0.15931620    -0.32400
H654        H  0.04269304  0.43597218  0.13048125     0.29000
H655        H  0.93220286  0.01875632  0.26427146     0.29000
H656        H  0.45900841  0.03878757  0.15713897     0.19600
H657        H  0.04265261  0.46745894  0.23726133     0.19600
C658        C  0.50575265  0.99952070  0.85201468    -0.06300
C659        C  0.99075950  0.46808529  0.83436404    -0.17400
C660        C  0.98503330  0.46780117  0.79425197     0.10900
C661        C  0.49626290  0.99813331  0.77016449    -0.06200
C662        C  0.51603843  0.02810080  0.78757069    -0.17400
C663        C  0.52106733  0.02912920  0.82804202     0.11000
S664        S  0.95798293  0.42862513  0.77597162    -0.32400
S665        S  0.54845914  0.06725105  0.84816324    -0.32400
H666        H  0.55621893  0.08701900  0.81302277     0.29000
H667        H  0.93908360  0.45354348  0.75093884     0.29000
H668        H  0.97953582  0.44462028  0.85209614     0.19600
H669        H  0.52801463  0.05051271  0.76922312     0.19600
Zn670      Zn  0.54887186  0.50247138  0.03654376     1.49700
Zn671      Zn  0.50715712  0.95289624  0.97113700     1.49400
Zn672      Zn  0.96682357  0.50121088  0.03547330     1.49100
Zn673      Zn  0.50976038  0.54799407  0.96743261     1.49500
O674        O  0.50938293  0.50118830  0.00180584    -1.84300
O675        O  0.57709891  0.95276120  0.02676592    -0.74900
O676        O  0.96568231  0.92071749  0.98225747    -0.74700
O677        O  0.98060992  0.00394234  0.09408315    -0.74200
O678        O  0.55028768  0.92026455  0.97978875    -0.74900
O679        O  0.53565022  0.00047170  0.09518562    -0.74500
O680        O  0.93955695  0.95435467  0.02935335    -0.75100
O681        O  0.96688729  0.58127813  0.97749451    -0.74500
O682        O  0.50601038  0.96714307  0.91390754    -0.75200
O683        O  0.93677208  0.54670942  0.02111429    -0.74600
O684        O  0.51072771  0.53177566  0.91112246    -0.75100
O685        O  0.55288012  0.58104630  0.97606704    -0.75000
O686        O  0.57887947  0.54879596  0.02413952    -0.74800
C687        C  0.57574055  0.92433463  0.00280851     0.77000
C688        C  0.94052540  0.92540188  0.00603000     0.77500
C689        C  0.00897514  0.00309322  0.11261309     0.76400
C690        C  0.93944182  0.57581424  0.99761680     0.76800
C691        C  0.51119037  0.49856188  0.89378538     0.77900
C692        C  0.57812159  0.57695565  0.99946275     0.77000
N693        N  0.81141481  0.75374296  0.98872445    -0.36800
N694        N  0.75932099  0.69153442  0.98625768    -0.57300
N695        N  0.70586118  0.75206664  0.98302136    -0.36700
N696        N  0.75791196  0.81415156  0.99069413    -0.57300
C697        C  0.83126143  0.72149223  0.99555672     0.26800
C698        C  0.83043884  0.78578743  0.99841152     0.26800
C699        C  0.68617425  0.71938471  0.98904576     0.26800
C700        C  0.68544529  0.78377370  0.99015129     0.26800
C701        C  0.78776805  0.66855580  0.98261772     0.35400
C702        C  0.73174172  0.66753408  0.98127396     0.35500
C703        C  0.78573893  0.83839998  0.98985060     0.35400
C704        C  0.72986048  0.83752428  0.98617604     0.35500
C705        C  0.86333235  0.73322761  0.00930251    -0.22000
C706        C  0.86286673  0.77371934  0.01096160    -0.22000
C707        C  0.65274309  0.73057170  0.99925261    -0.22000
C708        C  0.65227647  0.77108522  0.99991503    -0.22000
C709        C  0.77822780  0.62963977  0.97558136    -0.23100
C710        C  0.74263873  0.62896706  0.97490677    -0.23100
C711        C  0.77534206  0.87747771  0.98541675    -0.23100
C712        C  0.73983110  0.87692427  0.98306103    -0.23100
C713        C  0.82204865  0.68167324  0.98852572    -0.18400
C714        C  0.82029856  0.82582960  0.99451381    -0.18400
C715        C  0.69527771  0.82403989  0.98726017    -0.18400
C716        C  0.69685862  0.67959557  0.98453170    -0.18400
H717        H  0.88497490  0.71456727  0.01729239     0.14500
H718        H  0.88416618  0.79210437  0.02031401     0.14500
H719        H  0.63081378  0.71156805  0.00569390     0.14500
H720        H  0.62994726  0.78909694  0.00705987     0.14500
H721        H  0.79511559  0.60428084  0.97207357     0.12800
H722        H  0.72661190  0.60306004  0.97054215     0.12800
H723        H  0.79162269  0.90360294  0.98422795     0.12800
H724        H  0.72323140  0.90257238  0.97979969     0.12800
H725        H  0.78797280  0.75407199  0.97415784     0.26000
H726        H  0.73062109  0.75286042  0.97103955     0.26000
C727        C  0.49682401  0.49766379  0.72610484     0.80100
N728        N  0.49153157  0.96411309  0.70683949    -0.78200
C729        C  0.48619929  0.96429688  0.66782181     0.82500
N730        N  0.48649441  0.49958311  0.64797650    -0.78200
C731        C  0.48782458  0.53416896  0.66823304     0.82600
N732        N  0.49359005  0.53298605  0.70715022    -0.79900
C733        C  0.49658973  0.50158987  0.27959199     0.80100
N734        N  0.49371474  0.53621484  0.29936169    -0.78200
C735        C  0.48848296  0.53596993  0.33847336     0.82500
N736        N  0.48590758  0.50059966  0.35776717    -0.78200
C737        C  0.48877092  0.96555394  0.33968802     0.82600
N738        N  0.49491365  0.96654961  0.30072627    -0.79900
N739        N  0.48959614  0.68971208  0.50411203    -0.36800
N740        N  0.48739426  0.74993119  0.56434864    -0.57300
N741        N  0.48608747  0.80961129  0.50313232    -0.36700
N742        N  0.49134324  0.74946261  0.44294294    -0.57300
C743        C  0.49676145  0.66778480  0.53618301     0.26800
C744        C  0.49843635  0.66760070  0.47281405     0.26800
C745        C  0.49241428  0.83205730  0.53482598     0.26800
C746        C  0.49484889  0.83170812  0.47151743     0.26800
C747        C  0.48195043  0.71746998  0.58694544     0.35400
C748        C  0.48001796  0.78198621  0.58641195     0.35500
C749        C  0.48637199  0.71703593  0.42072162     0.35400
C750        C  0.48506792  0.78148971  0.42018255     0.35500
C751        C  0.51068520  0.63161468  0.52508249    -0.22000
C752        C  0.51170745  0.63149371  0.48516659    -0.22000
C753        C  0.50561110  0.86854210  0.52317460    -0.22000
C754        C  0.50713518  0.86832587  0.48330999    -0.22000
C755        C  0.47148553  0.72895266  0.62383026    -0.23100
C756        C  0.47024323  0.76987266  0.62348696    -0.23100
C757        C  0.47730929  0.72849791  0.38339525    -0.23100
C758        C  0.47652544  0.76942276  0.38304393    -0.23100
C759        C  0.48825918  0.67790125  0.57504144    -0.18400
C760        C  0.49189076  0.67750915  0.43346275    -0.18400
C761        C  0.48917336  0.82128481  0.43225941    -0.18400
C762        C  0.48399284  0.82188289  0.57381188    -0.18400
H763        H  0.51861993  0.60740668  0.54381460     0.14500
H764        H  0.52054973  0.60720065  0.46722910     0.14500
H765        H  0.51286376  0.89310618  0.54149673     0.14500
H766        H  0.51574109  0.89271078  0.46502235     0.14500
H767        H  0.46570928  0.70987374  0.64846698     0.12800
H768        H  0.46327975  0.78854387  0.64779555     0.12800
H769        H  0.97439375  0.70808136  0.35818796     0.12800
H770        H  0.97349681  0.78683484  0.35662847     0.12800
H771        H  0.47514567  0.71569123  0.50353407     0.26000
H772        H  0.47232103  0.78310615  0.50289046     0.26000
C773        C  0.48683413  0.92672731  0.36036052    -0.06300
C774        C  0.51426107  0.89958600  0.35614720    -0.17400
C775        C  0.51518104  0.86404450  0.37775582     0.10900
C776        C  0.48754678  0.85464677  0.40346160    -0.06200
C777        C  0.96038496  0.87856330  0.40200175    -0.17400
C778        C  0.95976282  0.91409465  0.38065863     0.11000
S779        S  0.55291127  0.83294900  0.37233929    -0.32400
S780        S  0.92016361  0.94228717  0.38149267    -0.32400
H781        H  0.92369276  0.95779068  0.34359750     0.29000
H782        H  0.55309702  0.81784771  0.41049600     0.29000
H783        H  0.53590056  0.90694739  0.33716477     0.19600
H784        H  0.93810392  0.87055334  0.41976199     0.19600
C785        C  0.48728292  0.57402575  0.35999194    -0.06300
C786        C  0.51485106  0.60101156  0.35556588    -0.17400
C787        C  0.51678299  0.63552706  0.37816783     0.10900
C788        C  0.49007534  0.64399693  0.40526370    -0.06200
C789        C  0.96237998  0.61649518  0.41052668    -0.17400
C790        C  0.96032402  0.58167912  0.38876024     0.11000
S791        S  0.55450992  0.66658045  0.37195793    -0.32400
S792        S  0.92268906  0.55089365  0.39607190    -0.32400
H793        H  0.92063377  0.53837177  0.35723015     0.29000
H794        H  0.55545858  0.68096551  0.41016408     0.29000
H795        H  0.53581866  0.59429707  0.33552717     0.19600
H796        H  0.94214792  0.62291023  0.43160057     0.19600
C797        C  0.48611394  0.64446881  0.60379597    -0.06300
C798        C  0.95575748  0.61707915  0.59964944    -0.17400
C799        C  0.95507480  0.58188205  0.62164947     0.10900
C800        C  0.48514301  0.57300260  0.64782855    -0.06200
C801        C  0.51160763  0.60112694  0.65280046    -0.17400
C802        C  0.51276609  0.63623129  0.63059824     0.11000
S803        S  0.91953418  0.54819870  0.61391618    -0.32400
S804        S  0.54988430  0.66806848  0.63623069    -0.32400
H805        H  0.55227683  0.68009835  0.59710401     0.29000
H806        H  0.91824898  0.53352493  0.65228078     0.29000
H807        H  0.93595244  0.62206274  0.57800596     0.19600
H808        H  0.53261688  0.59467465  0.67256676     0.19600
C809        C  0.48496423  0.92631578  0.64601476    -0.06300
C810        C  0.96074478  0.92164833  0.61804576    -0.17400
C811        C  0.95735737  0.88674378  0.59639944     0.10900
C812        C  0.48094425  0.85522839  0.60226907    -0.06200
C813        C  0.50739974  0.86072933  0.62945173    -0.17400
C814        C  0.50981890  0.89581926  0.65106954     0.11000
S815        S  0.92174245  0.88386238  0.56289460    -0.32400
S816        S  0.54683644  0.90100342  0.68221809    -0.32400
H817        H  0.55219184  0.94146493  0.67394127     0.29000
H818        H  0.91916226  0.84226812  0.56323111     0.29000
H819        H  0.94207665  0.94529102  0.61401594     0.19600
H820        H  0.52747123  0.83845553  0.63222628     0.19600
C821        C  0.90939096  0.60293217  0.99379865    -0.06300
C822        C  0.88499479  0.60377057  0.02446173    -0.17400
C823        C  0.85599069  0.62839217  0.02315407     0.10900
C824        C  0.85039616  0.65216599  0.98999804    -0.06200
C825        C  0.87426929  0.65125224  0.95910798    -0.17400
C826        C  0.90350188  0.62684788  0.96042905     0.11000
S827        S  0.82763737  0.62890221  0.06512071    -0.32400
S828        S  0.93136682  0.62714415  0.91813050    -0.32400
H829        H  0.93249260  0.58553920  0.91541019     0.29000
H830        H  0.81916249  0.66937788  0.06301399     0.29000
H831        H  0.88890721  0.58580164  0.05028722     0.19600
H832        H  0.87011859  0.66998354  0.93383531     0.19600
C833        C  0.60566736  0.89727589  0.99992516    -0.06300
C834        C  0.61441455  0.88197784  0.96323698    -0.17400
C835        C  0.64480491  0.86024571  0.95759819     0.10900
C836        C  0.66703513  0.85351968  0.98929301    -0.06200
C837        C  0.65851072  0.86876971  0.02586274    -0.17400
C838        C  0.62785041  0.88982296  0.03173690     0.11000
S839        S  0.65332404  0.84094295  0.90966424    -0.32400
S840        S  0.61758333  0.90373077  0.08101267    -0.32400
H841        H  0.58186440  0.89627813  0.07767656     0.29000
H842        H  0.68949665  0.83858731  0.91327084     0.29000
H843        H  0.59788884  0.88771501  0.93851220     0.19600
H844        H  0.67491440  0.86213704  0.05049782     0.19600
C845        C  0.60835449  0.60384000  0.99649966    -0.06300
C846        C  0.61744629  0.61935887  0.95977367    -0.17400
C847        C  0.64760614  0.64177973  0.95438686     0.10900
C848        C  0.66932802  0.64900825  0.98633923    -0.06200
C849        C  0.66065791  0.63319464  0.02287789    -0.17400
C850        C  0.63023355  0.61139950  0.02850597     0.11000
S851        S  0.65637571  0.66150997  0.90642746    -0.32400
S852        S  0.61980020  0.59672390  0.07775221    -0.32400
H853        H  0.58413135  0.60452483  0.07439291     0.29000
H854        H  0.69245793  0.66461208  0.91046653     0.29000
H855        H  0.60125145  0.61348684  0.93487356     0.19600
H856        H  0.67667564  0.64002651  0.04769536     0.19600
C857        C  0.91029736  0.89872815  0.00447034    -0.06300
C858        C  0.89975725  0.88543299  0.96784575    -0.17400
C859        C  0.86896746  0.86432986  0.96343320     0.10900
C860        C  0.84822921  0.85578686  0.99635851    -0.06200
C861        C  0.85838054  0.86933475  0.03296882    -0.17400
C862        C  0.88938702  0.89016643  0.03750560     0.11000
S863        S  0.85810350  0.84800226  0.91521553    -0.32400
S864        S  0.90177717  0.90255438  0.08640355    -0.32400
H865        H  0.93747531  0.89676596  0.08009231     0.29000
H866        H  0.82202497  0.84797227  0.92072120     0.29000
H867        H  0.91518020  0.89237002  0.94221596     0.19600
H868        H  0.84305889  0.86151702  0.05843750     0.17100
C869        C  0.50450691  0.50186740  0.15448571    -0.06300
C870        C  0.47534542  0.51841068  0.17309218    -0.17400
C871        C  0.47196096  0.51827871  0.21369637     0.10900
C872        C  0.49854837  0.50191528  0.23671680    -0.06200
C873        C  0.02804280  0.98322378  0.21991662    -0.17400
C874        C  0.03184747  0.98287534  0.17934593     0.11000
S875        S  0.43259883  0.53828391  0.23431447    -0.32400
S876        S  0.06717925  0.95426714  0.15969561    -0.32400
H877        H  0.04704198  0.93630372  0.13080202     0.29000
H878        H  0.92836818  0.51728883  0.26683359     0.29000
H879        H  0.45481787  0.53138678  0.15588280     0.19600
H880        H  0.04674321  0.96759049  0.23766495     0.19600
C881        C  0.51015610  0.49758750  0.85065109    -0.06300
C882        C  0.98905698  0.96870171  0.83372952    -0.17400
C883        C  0.98426141  0.96801145  0.79343503     0.10900
C884        C  0.50108685  0.49658009  0.76895566    -0.06200
C885        C  0.52051966  0.52666315  0.78657335    -0.17400
C886        C  0.52530792  0.52750853  0.82700707     0.11000
S887        S  0.95536915  0.93068107  0.77504522    -0.32400
S888        S  0.55227644  0.56576052  0.84757014    -0.32400
H889        H  0.55703233  0.58813753  0.81328024     0.29000
H890        H  0.93840912  0.95661793  0.74924463     0.29000
H891        H  0.97617030  0.94643881  0.85153685     0.19600
H892        H  0.53235980  0.54935950  0.76844887     0.19600
loop_ 
_geom_bond_atom_site_label_1 
_geom_bond_atom_site_label_2 
_geom_bond_distance 
_geom_bond_site_symmetry_2 
_ccdc_geom_bond_type 
Zn1           O5   1.945       .  S
Zn1          O17   1.981       .  S
Zn1         O229   1.983   1_545  S
Zn1         O233   2.032       .  S
Zn2         O228   1.965   1_556  S
Zn2           O9   2.025       .  S
Zn2          O13   2.027       .  S
Zn2         O453   2.025   1_455  S
Zn3         O451   1.941       .  S
Zn3          O14   1.982       .  S
Zn3         O231   2.012       .  S
Zn3         O234   1.978   1_545  S
Zn4           O5   1.965   1_556  S
Zn4          O15   2.022       .  S
Zn4          O16   2.030       .  S
Zn4         O458   2.024   1_455  S
O5         Zn225   1.959   1_544  S
O5         Zn449   1.939   1_455  S
O6         Zn224   1.990       .  S
O6           C18   1.270       .  A
O7         Zn448   2.027       .  S
O7           C19   1.275   1_556  A
O8         Zn226   2.018       .  S
O8           C20   1.273       .  A
O9           C18   1.276   1_556  A
O10        Zn224   2.022       .  S
O10         C466   1.273       .  A
O11        Zn226   1.980       .  S
O11          C19   1.269       .  A
O12        Zn450   2.020       .  S
O12          C21   1.274       .  A
O13         C245   1.274       .  A
O14          C21   1.270   1_554  A
O15          C22   1.273   1_545  A
O16          C23   1.276   1_556  A
O17          C23   1.269       .  A
C18         C164   1.484       .  S
C19         C188   1.476       .  S
C20         O456   1.274       .  A
C20         C869   1.490       .  S
C21         C152   1.481       .  S
C22         O236   1.274       .  A
C22         C212   1.489       .  S
C23         C176   1.483   1_554  S
N24          C29   1.351       .  A
N24          C28   1.352       .  A
N24          H56   1.038       .  S
N25          C32   1.348       .  A
N25          C33   1.348       .  A
N26          C31   1.350   1_556  A
N26          C30   1.350       .  A
N26          H57   1.039       .  S
N27          C34   1.349       .  A
N27          C35   1.349       .  A
C28          C36   1.388   1_556  A
C28          C44   1.412       .  A
C29          C45   1.410       .  A
C29          C37   1.387   1_556  A
C30          C38   1.388   1_556  A
C30          C47   1.409       .  A
C31          C46   1.408   1_554  A
C31          C39   1.387       .  A
C32          C44   1.408       .  A
C32          C40   1.386       .  A
C33          C47   1.408       .  A
C33          C41   1.386       .  A
C34          C42   1.386       .  A
C34          C45   1.409       .  A
C35          C43   1.385       .  A
C35          C46   1.409       .  A
C36          C37   1.369       .  A
C36          H48   1.082       .  S
C37          H49   1.082       .  S
C38          C39   1.369       .  A
C38          H50   1.082       .  S
C39          H51   1.082       .  S
C40          C41   1.376       .  A
C40          H52   1.082       .  S
C41          H53   1.082       .  S
C42          C43   1.376       .  A
C42          H54   1.082       .  S
C43          H55   1.082       .  S
C44         C155   1.478       .  S
C45         C191   1.478       .  S
C46         C167   1.479       .  S
C47         C179   1.477       .  S
C58         C215   1.489   1_655  S
C58          N63   1.361   1_565  A
C58         N282   1.361       .  A
N59          C60   1.358       .  A
N59         C281   1.359       .  A
C60         C140   1.493       .  S
C60         N284   1.364       .  A
N61          C62   1.363   1_565  A
N61         C283   1.362       .  A
C62         C131   1.487       .  S
C62          N63   1.360       .  A
C64         C203   1.477   1_655  S
C64          N65   1.359       .  A
C64         N292   1.359   1_545  A
N65          C66   1.359       .  A
C66         C116   1.491       .  S
C66          N67   1.366   1_545  A
N67         C291   1.366       .  A
C68         C104   1.483       .  S
C68          N69   1.358       .  A
C68         N290   1.363       .  A
N69         C287   1.359       .  A
N70          C75   1.355       .  A
N70          C74   1.354       .  A
N70         H102   1.040       .  S
N71          C78   1.353       .  A
N71          C79   1.354       .  A
N72          C77   1.354       .  A
N72          C76   1.354       .  A
N72         H103   1.040       .  S
N73          C80   1.352       .  A
N73          C81   1.351       .  A
C74          C82   1.387   1_655  A
C74          C90   1.416       .  A
C75          C91   1.416       .  A
C75          C83   1.387   1_655  A
C76          C84   1.387   1_655  A
C76          C93   1.417       .  A
C77          C92   1.415       .  A
C77          C85   1.387   1_655  A
C78          C90   1.418       .  A
C78          C86   1.386       .  A
C79          C93   1.419       .  A
C79          C87   1.386       .  A
C80          C88   1.386       .  A
C80          C91   1.417       .  A
C81          C89   1.386       .  A
C81          C92   1.415       .  A
C82          C83   1.373       .  A
C82          H94   1.082       .  S
C83          H95   1.082       .  S
C84          C85   1.373       .  A
C84          H96   1.082       .  S
C85          H97   1.082       .  S
C86          C87   1.382       .  A
C86          H98   1.082       .  S
C87          H99   1.082       .  S
C88          C89   1.381       .  A
C88         H546   1.082       .  S
C89         H547   1.082       .  S
C90         C128   1.496       .  S
C91         C119   1.499       .  S
C92         C107   1.491       .  S
C93         C143   1.502       .  S
H100        C534   1.082       .  S
H101        C535   1.082       .  S
C104        C105   1.406   1_655  A
C104        C555   1.413       .  A
C105        C106   1.405       .  A
C105        H114   1.084       .  S
C106        C107   1.414   1_455  A
C106        S110   1.804       .  S
C107        C554   1.404       .  A
C108        C109   1.402       .  A
C108        C553   1.404       .  A
C108        H115   1.084       .  S
C109        C550   1.413       .  A
C109        S111   1.801       .  S
S110        H113   1.405       .  S
S111        H112   1.407       .  S
C116        C117   1.408   1_655  A
C116        C567   1.413       .  A
C117        C118   1.406       .  A
C117        H126   1.084       .  S
C118        C119   1.414   1_455  A
C118        S122   1.803       .  S
C119        C566   1.406       .  A
C120        C121   1.401       .  A
C120        C565   1.405       .  A
C120        H127   1.084       .  S
C121        C562   1.412       .  A
C121        S123   1.800       .  S
S122        H125   1.405       .  S
S123        H124   1.407       .  S
C128        C133   1.414   1_655  A
C128        C575   1.405       .  A
C129        C130   1.403       .  A
C129        C574   1.407       .  A
C129        H138   1.084       .  S
C130        C577   1.414       .  A
C130        S134   1.804       .  S
C131        C132   1.407   1_655  A
C131        C576   1.413       .  A
C132        C133   1.406       .  A
C132        H139   1.084       .  S
C133        S135   1.804       .  S
S134        H137   1.407       .  S
S135        H136   1.405       .  S
C140        C145   1.421   1_655  A
C140        C587   1.404       .  A
C141        C142   1.401       .  A
C141        C586   1.404       .  A
C141        H150   1.084       .  S
C142        C589   1.416       .  A
C142        S146   1.805       .  S
C143        C144   1.403   1_655  A
C143        C588   1.418       .  A
C144        C145   1.406       .  A
C144        H151   1.084       .  S
C145        S147   1.802       .  S
S146        H149   1.406       .  S
S147        H148   1.407       .  S
C152        C153   1.407   1_556  A
C152        C157   1.417       .  A
C153        C154   1.395       .  A
C153        H162   1.084       .  S
C154        C155   1.409   1_554  A
C154        S158   1.805       .  S
C155        C156   1.401       .  A
C156        C157   1.398       .  A
C156        H163   1.084       .  S
C157        S159   1.803       .  S
S158        H161   1.404       .  S
S159        H160   1.408       .  S
C164        C165   1.406   1_554  A
C164        C169   1.420       .  A
C165        C166   1.396       .  A
C165        H174   1.084       .  S
C166        C167   1.410       .  A
C166        S170   1.805       .  S
C167        C168   1.398   1_556  A
C168        C169   1.398       .  A
C168        H175   1.084       .  S
C169        S171   1.801       .  S
S170        H173   1.406       .  S
S171        H172   1.407       .  S
C176        C177   1.407       .  A
C176        C181   1.420   1_556  A
C177        C178   1.398       .  A
C177        H186   1.084       .  S
C178        C179   1.410       .  A
C178        S182   1.805       .  S
C179        C180   1.397   1_556  A
C180        C181   1.395       .  A
C180        H187   1.084       .  S
C181        S183   1.804       .  S
S182        H185   1.405       .  S
S183        H184   1.408       .  S
C188        C189   1.404   1_554  A
C188        C193   1.417       .  A
C189        C190   1.397       .  A
C189        H198   1.084       .  S
C190        C191   1.410       .  A
C190        S194   1.804       .  S
C191        C192   1.399   1_556  A
C192        C193   1.396       .  A
C192        H199   1.084       .  S
C193        S195   1.804       .  S
S194        H197   1.405       .  S
S195        H196   1.407       .  S
C200        C689   1.487       .  S
C200        C201   1.406   1_455  A
C200        C874   1.417   1_545  A
C201        C202   1.399       .  A
C201        H210   1.084       .  S
C202        C203   1.412   1_655  A
C202        S206   1.804       .  S
C203        C873   1.402   1_545  A
C204        C205   1.401       .  A
C204        C872   1.400       .  A
C204        H211   1.084       .  S
C205        C869   1.419       .  A
C205        S207   1.800       .  S
S206        H655   1.407       .  S
S207        H208   1.407       .  S
H209        S652   1.407       .  S
C212        C217   1.416   1_565  A
C212        C882   1.405   1_455  A
C213        C214   1.399       .  A
C213        C881   1.404       .  A
C213        H222   1.084       .  S
C214        C884   1.416       .  A
C214        S218   1.803       .  S
C215        C216   1.406   1_565  A
C215        C883   1.416   1_455  A
C216        C217   1.407       .  A
C216        H223   1.082       .  S
C217        S219   1.809       .  S
S218        H221   1.407       .  S
S219        H220   1.406       .  S
Zn224       O228   1.948       .  S
Zn224       O240   1.994       .  S
Zn225       O676   2.023   1_455  S
Zn225       O232   2.016       .  S
Zn225       O236   2.024       .  S
Zn226       O674   1.943       .  S
Zn226       O237   1.981       .  S
Zn227       O228   1.958   1_556  S
Zn227       O681   2.022   1_455  S
Zn227       O238   2.017       .  S
Zn227       O239   2.016       .  S
O228       Zn672   1.944   1_455  S
O229        C241   1.270       .  A
O230       Zn671   2.020       .  S
O230        C242   1.275   1_556  A
O231        C243   1.273       .  A
O232        C241   1.275   1_556  A
O233        C689   1.273       .  A
O234        C242   1.268       .  A
O235       Zn673   2.032       .  S
O235        C244   1.275       .  A
O237        C244   1.270   1_554  A
O238        C245   1.272       .  A
O239        C246   1.275   1_556  A
O240        C246   1.270       .  A
C241        C387   1.474   1_554  S
C242        C411   1.473       .  S
C243        O679   1.274       .  A
C243        C646   1.487       .  S
C244        C375   1.476       .  S
C245        C435   1.488       .  S
C246        C399   1.478   1_554  S
N247        C252   1.350   1_556  A
N247        C251   1.351       .  A
N247        H279   1.037       .  S
N248        C255   1.350       .  A
N248        C256   1.349       .  A
N249        C254   1.351       .  A
N249        C253   1.352       .  A
N249        H280   1.038       .  S
N250        C257   1.350       .  A
N250        C258   1.349       .  A
C251        C259   1.388   1_556  A
C251        C267   1.412       .  A
C252        C268   1.412   1_554  A
C252        C260   1.388       .  A
C253        C261   1.388       .  A
C253        C270   1.414       .  A
C254        C269   1.412       .  A
C254        C262   1.387       .  A
C255        C267   1.412       .  A
C255        C263   1.386       .  A
C256        C270   1.410       .  A
C256        C264   1.385       .  A
C257        C265   1.386       .  A
C257        C268   1.411       .  A
C258        C266   1.386       .  A
C258        C269   1.409       .  A
C259        C260   1.368       .  A
C259        H271   1.082       .  S
C260        H272   1.082       .  S
C261        C262   1.368       .  A
C261        H273   1.082   1_556  S
C262        H274   1.082   1_556  S
C263        C264   1.375       .  A
C263        H275   1.082       .  S
C264        H276   1.082       .  S
C265        C266   1.373       .  A
C265        H277   1.082       .  S
C266        H278   1.082       .  S
C267        C378   1.479       .  S
C268        C414   1.477       .  S
C269        C390   1.477       .  S
C270        C402   1.480       .  S
C281        C438   1.487       .  S
C281        N286   1.361       .  A
N282        C283   1.360       .  A
C283        C363   1.489       .  S
N284        C285   1.364       .  A
C285        C354   1.488       .  S
C285        N286   1.360       .  A
C287        C426   1.474       .  S
C287        N288   1.358       .  A
N288        C289   1.358       .  A
C289        C339   1.483       .  S
C289        N290   1.363       .  A
C291        C327   1.487       .  S
C291        N292   1.359       .  A
N293        C298   1.354       .  A
N293        C297   1.354       .  A
N293        H325   1.040       .  S
N294        C301   1.354       .  A
N294        C302   1.353       .  A
N295        C300   1.355       .  A
N295        C299   1.355       .  A
N295        H326   1.040       .  S
N296        C303   1.352       .  A
N296        C304   1.353       .  A
C297        C305   1.387   1_655  A
C297        C313   1.417       .  A
C298        C314   1.416       .  A
C298        C306   1.387   1_655  A
C299        C307   1.387   1_655  A
C299        C316   1.418       .  A
C300        C315   1.416       .  A
C300        C308   1.387   1_655  A
C301        C313   1.418       .  A
C301        C309   1.386       .  A
C302        C316   1.418       .  A
C302        C310   1.386       .  A
C303        C311   1.386       .  A
C303        C314   1.417       .  A
C304        C312   1.386       .  A
C304        C315   1.416       .  A
C305        C306   1.373       .  A
C305        H317   1.082       .  S
C306        H318   1.083       .  S
C307        C308   1.372       .  A
C307        H319   1.082       .  S
C308        H320   1.082       .  S
C309        C310   1.381       .  A
C309        H321   1.082       .  S
C310        H322   1.082       .  S
C311        C312   1.381       .  A
C311        H769   1.082       .  S
C312        H770   1.082       .  S
C313        C351   1.498       .  S
C314        C342   1.494       .  S
C315        C330   1.495       .  S
C316        C366   1.499       .  S
H323        C757   1.082       .  S
H324        C758   1.082       .  S
C327        C328   1.407   1_655  A
C327        C778   1.412       .  A
C328        C329   1.407       .  A
C328        H337   1.084       .  S
C329        C330   1.415   1_455  A
C329        S333   1.806       .  S
C330        C777   1.404       .  A
C331        C776   1.405       .  A
C331        C332   1.401       .  A
C331        H338   1.084       .  S
C332        C773   1.413       .  A
C332        S334   1.800       .  S
S333        H336   1.403       .  S
S334        H335   1.407       .  S
C339        C340   1.407   1_655  A
C339        C790   1.412       .  A
C340        C341   1.405       .  A
C340        H349   1.084       .  S
C341        C342   1.414   1_455  A
C341        S345   1.804       .  S
C342        C789   1.404       .  A
C343        C788   1.405       .  A
C343        C344   1.401       .  A
C343        H350   1.084       .  S
C344        C785   1.412       .  A
C344        S346   1.800       .  S
S345        H348   1.405       .  S
S346        H347   1.407       .  S
C351        C798   1.406       .  A
C351        C356   1.414   1_655  A
C352        C797   1.406       .  A
C352        C353   1.403       .  A
C352        H361   1.084       .  S
C353        C800   1.413       .  A
C353        S357   1.803       .  S
C354        C799   1.414       .  A
C354        C355   1.406   1_655  A
C355        C356   1.405       .  A
C355        H362   1.084       .  S
C356        S358   1.803       .  S
S357        H360   1.407       .  S
S358        H359   1.405       .  S
C363        C810   1.405       .  A
C363        C368   1.417   1_655  A
C364        C809   1.404       .  A
C364        C365   1.403       .  A
C364        H373   1.084       .  S
C365        C812   1.417       .  A
C365        S369   1.804       .  S
C366        C811   1.416       .  A
C366        C367   1.403   1_655  A
C367        C368   1.405       .  A
C367        H374   1.084       .  S
C368        S370   1.802       .  S
S369        H372   1.406       .  S
S370        H371   1.407       .  S
C375        C376   1.405   1_556  A
C375        C380   1.415       .  A
C376        C377   1.395       .  A
C376        H385   1.084       .  S
C377        C378   1.410   1_554  A
C377        S381   1.805       .  S
C378        C379   1.401       .  A
C379        C380   1.399       .  A
C379        H386   1.084       .  S
C380        S382   1.802       .  S
S381        H384   1.404       .  S
S382        H383   1.407       .  S
C387        C388   1.405       .  A
C387        C392   1.416   1_556  A
C388        C389   1.396       .  A
C388        H397   1.084       .  S
C389        C390   1.409       .  A
C389        S393   1.804       .  S
C390        C391   1.399   1_556  A
C391        C392   1.394       .  A
C391        H398   1.084       .  S
C392        S394   1.802       .  S
S393        H396   1.405       .  S
S394        H395   1.407       .  S
C399        C400   1.406       .  A
C399        C404   1.417   1_556  A
C400        C401   1.396       .  A
C400        H409   1.084       .  S
C401        C402   1.409       .  A
C401        S405   1.804       .  S
C402        C403   1.401   1_556  A
C403        C404   1.397       .  A
C403        H410   1.084       .  S
C404        S406   1.804       .  S
S405        H408   1.405       .  S
S406        H407   1.407       .  S
C411        C412   1.403   1_554  A
C411        C416   1.415       .  A
C412        C413   1.395       .  A
C412        H421   1.084       .  S
C413        C414   1.411       .  A
C413        S417   1.806       .  S
C414        C415   1.401   1_556  A
C415        C416   1.397       .  A
C415        H422   1.084       .  S
C416        S418   1.804       .  S
S417        H420   1.402       .  S
S418        H419   1.407       .  S
C423        C466   1.487       .  S
C423        C424   1.407   1_455  A
C423        C651   1.418       .  A
C424        C425   1.401       .  A
C424        H433   1.084       .  S
C425        C426   1.412       .  A
C425        S429   1.805       .  S
C426        C650   1.400   1_655  A
C427        C649   1.401   1_565  A
C427        C428   1.402       .  A
C427        H434   1.084       .  S
C428        C646   1.418   1_565  A
C428        S430   1.801       .  S
S429        H878   1.407       .  S
S430        H431   1.407       .  S
H432        S875   1.407       .  S
C435        C659   1.404   1_455  A
C435        C440   1.416       .  A
C436        C658   1.405       .  A
C436        C437   1.400       .  A
C436        H445   1.084       .  S
C437        C661   1.416       .  A
C437        S441   1.803       .  S
C438        C660   1.416       .  A
C438        C439   1.406   1_655  A
C439        C440   1.406       .  A
C439        H446   1.083       .  S
C440        S442   1.808       .  S
S441        H444   1.407       .  S
S442        H443   1.407       .  S
Zn447       O451   1.944   1_565  S
Zn447       O675   1.982       .  S
Zn447       O679   2.030   1_565  S
Zn447       O463   1.987   1_565  S
Zn448       O674   1.967   1_556  S
Zn448       O455   2.027       .  S
Zn448       O459   2.023       .  S
Zn449       O677   2.006       .  S
Zn449       O680   1.980   1_545  S
Zn449       O460   1.976       .  S
Zn450       O451   1.962   1_556  S
Zn450       O461   2.023       .  S
Zn450       O462   2.025       .  S
O451       Zn671   1.959   1_544  S
O452       Zn670   1.992       .  S
O452        C464   1.270       .  A
O453        C465   1.275   1_556  A
O454       Zn672   2.020       .  S
O454        C466   1.273   1_655  A
O455        C464   1.276   1_556  A
O456       Zn670   2.029       .  S
O457       Zn672   1.982       .  S
O457        C465   1.269       .  A
O458        C467   1.275       .  A
O459        C691   1.274       .  A
O460        C467   1.270   1_554  A
O461        C468   1.273   1_545  A
O462        C469   1.276   1_556  A
O463        C469   1.269       .  A
C464        C610   1.483       .  S
C465        C634   1.474       .  S
C467        C598   1.474       .  S
C468        O682   1.274       .  A
C468        C658   1.490       .  S
C469        C622   1.484   1_554  S
N470        C475   1.351       .  A
N470        C474   1.352       .  A
N470        H502   1.037       .  S
N471        C478   1.349       .  A
N471        C479   1.349       .  A
N472        C477   1.351       .  A
N472        C476   1.351       .  A
N472        H503   1.038       .  S
N473        C480   1.349       .  A
N473        C481   1.349       .  A
C474        C482   1.388   1_556  A
C474        C490   1.413       .  A
C475        C491   1.411       .  A
C475        C483   1.387   1_556  A
C476        C484   1.387   1_556  A
C476        C493   1.411       .  A
C477        C492   1.410       .  A
C477        C485   1.387   1_556  A
C478        C490   1.410       .  A
C478        C486   1.386       .  A
C479        C493   1.410       .  A
C479        C487   1.386       .  A
C480        C488   1.386       .  A
C480        C491   1.410       .  A
C481        C489   1.385       .  A
C481        C492   1.409       .  A
C482        C483   1.369       .  A
C482        H494   1.082       .  S
C483        H495   1.082       .  S
C484        C485   1.370       .  A
C484        H496   1.082       .  S
C485        H497   1.082       .  S
C486        C487   1.375       .  A
C486        H498   1.082       .  S
C487        H499   1.082       .  S
C488        C489   1.375       .  A
C488        H500   1.082       .  S
C489        H501   1.082       .  S
C490        C601   1.478       .  S
C491        C637   1.478       .  S
C492        C613   1.480       .  S
C493        C625   1.480       .  S
C504        C661   1.489       .  S
C504        N728   1.361       .  A
C504        N509   1.361   1_565  A
N505        C727   1.358       .  A
N505        C506   1.357       .  A
C506        C586   1.489       .  S
C506        N730   1.364       .  A
N507        C729   1.363       .  A
N507        C508   1.363   1_565  A
C508        C577   1.488       .  S
C508        N509   1.360       .  A
C510        C649   1.476       .  S
C510        N511   1.358       .  A
C510        N738   1.359   1_545  A
N511        C512   1.357       .  A
C512        C562   1.485       .  S
C512        N513   1.365       .  A
N513        C737   1.365   1_545  A
C514        C550   1.488       .  S
C514        N736   1.364       .  A
C514        N515   1.359       .  A
N515        C733   1.360       .  A
N516        C521   1.354       .  A
N516        C520   1.355       .  A
N516        H548   1.040       .  S
N517        C524   1.353       .  A
N517        C525   1.353       .  A
N518        C523   1.354       .  A
N518        C522   1.353       .  A
N518        H549   1.040       .  S
N519        C526   1.351       .  A
N519        C527   1.352       .  A
C520        C528   1.387       .  A
C520        C536   1.416       .  A
C521        C537   1.416       .  A
C521        C529   1.387       .  A
C522        C530   1.388       .  A
C522        C539   1.416       .  A
C523        C538   1.415       .  A
C523        C531   1.386       .  A
C524        C536   1.417       .  A
C524        C532   1.385       .  A
C525        C539   1.418       .  A
C525        C533   1.386       .  A
C526        C534   1.386       .  A
C526        C537   1.416       .  A
C527        C535   1.385       .  A
C527        C538   1.416       .  A
C528        C529   1.373       .  A
C528        H540   1.082       .  S
C529        H541   1.082       .  S
C530        C531   1.374       .  A
C530        H542   1.082       .  S
C531        H543   1.082       .  S
C532        C533   1.381       .  A
C532        H544   1.082       .  S
C533        H545   1.082       .  S
C534        C535   1.381       .  A
C536        C574   1.499       .  S
C537        C565   1.493       .  S
C538        C553   1.495       .  S
C539        C589   1.496       .  S
C550        C551   1.407       .  A
C551        C552   1.407       .  A
C551        H560   1.084       .  S
C552        C553   1.415       .  A
C552        S556   1.805       .  S
C554        C555   1.401       .  A
C554        H561   1.084       .  S
C555        S557   1.801       .  S
S556        H559   1.404       .  S
S557        H558   1.407       .  S
C562        C563   1.406       .  A
C563        C564   1.405       .  A
C563        H572   1.084       .  S
C564        C565   1.414       .  A
C564        S568   1.805       .  S
C566        C567   1.402       .  A
C566        H573   1.084       .  S
C567        S569   1.799       .  S
S568        H571   1.404       .  S
S569        H570   1.407       .  S
C574        C579   1.415       .  A
C575        C576   1.401       .  A
C575        H584   1.084       .  S
C576        S580   1.803       .  S
C577        C578   1.407       .  A
C578        C579   1.406       .  A
C578        H585   1.084       .  S
C579        S581   1.804       .  S
S580        H583   1.407       .  S
S581        H582   1.405       .  S
C586        C591   1.420       .  A
C587        C588   1.402       .  A
C587        H596   1.084       .  S
C588        S592   1.805       .  S
C589        C590   1.402       .  A
C590        C591   1.404       .  A
C590        H597   1.084       .  S
C591        S593   1.803       .  S
S592        H595   1.406       .  S
S593        H594   1.407       .  S
C598        C599   1.405   1_556  A
C598        C603   1.415       .  A
C599        C600   1.394       .  A
C599        H608   1.084       .  S
C600        C601   1.410   1_554  A
C600        S604   1.804       .  S
C601        C602   1.401       .  A
C602        C603   1.398       .  A
C602        H609   1.084       .  S
C603        S605   1.803       .  S
S604        H607   1.404       .  S
S605        H606   1.407       .  S
C610        C611   1.406   1_554  A
C610        C615   1.420       .  A
C611        C612   1.397       .  A
C611        H620   1.084       .  S
C612        C613   1.410       .  A
C612        S616   1.804       .  S
C613        C614   1.399   1_556  A
C614        C615   1.398       .  A
C614        H621   1.084       .  S
C615        S617   1.801       .  S
S616        H619   1.406       .  S
S617        H618   1.407       .  S
C622        C623   1.407       .  A
C622        C627   1.420   1_556  A
C623        C624   1.397       .  A
C623        H632   1.084       .  S
C624        C625   1.410       .  A
C624        S628   1.804       .  S
C625        C626   1.398   1_556  A
C626        C627   1.396       .  A
C626        H633   1.084       .  S
C627        S629   1.803       .  S
S628        H631   1.406       .  S
S629        H630   1.408       .  S
C634        C635   1.405   1_554  A
C634        C639   1.416       .  A
C635        C636   1.398       .  A
C635        H644   1.084       .  S
C636        C637   1.410       .  A
C636        S640   1.804       .  S
C637        C638   1.399   1_556  A
C638        C639   1.395       .  A
C638        H645   1.084       .  S
C639        S641   1.804       .  S
S640        H643   1.405       .  S
S641        H642   1.407       .  S
C646        C647   1.406       .  A
C647        C648   1.399       .  A
C647        H656   1.084       .  S
C648        C649   1.412       .  A
C648        S652   1.804       .  S
C650        C651   1.400       .  A
C650        H657   1.084       .  S
C651        S653   1.800       .  S
S653        H654   1.407       .  S
C658        C663   1.417   1_565  A
C659        C660   1.399       .  A
C659        H668   1.084       .  S
C660        S664   1.803       .  S
C661        C662   1.406   1_565  A
C662        C663   1.408       .  A
C662        H669   1.083       .  S
C663        S665   1.809       .  S
S664        H667   1.407       .  S
S665        H666   1.406       .  S
Zn670       O674   1.945       .  S
Zn670       O686   1.987       .  S
Zn671       O678   2.019       .  S
Zn671       O682   2.024       .  S
Zn672       O683   1.986       .  S
Zn673       O674   1.966   1_556  S
Zn673       O684   2.016       .  S
Zn673       O685   2.028       .  S
O675        C687   1.270       .  A
O676        C688   1.275   1_556  A
O677        C689   1.272   1_655  A
O678        C687   1.275   1_556  A
O680        C688   1.268       .  A
O681        C690   1.273       .  A
O683        C690   1.271   1_554  A
O684        C691   1.272       .  A
O685        C692   1.276       .  A
O686        C692   1.270   1_554  A
C687        C833   1.476   1_554  S
C688        C857   1.475       .  S
C690        C821   1.484       .  S
C691        C881   1.485       .  S
C692        C845   1.480       .  S
N693        C698   1.351       .  A
N693        C697   1.351       .  A
N693        H725   1.038       .  S
N694        C701   1.350       .  A
N694        C702   1.350       .  A
N695        C700   1.351       .  A
N695        C699   1.352       .  A
N695        H726   1.038       .  S
N696        C703   1.350       .  A
N696        C704   1.349       .  A
C697        C705   1.387   1_556  A
C697        C713   1.412       .  A
C698        C714   1.412       .  A
C698        C706   1.388   1_556  A
C699        C707   1.388       .  A
C699        C716   1.413       .  A
C700        C715   1.412       .  A
C700        C708   1.388       .  A
C701        C713   1.412       .  A
C701        C709   1.386       .  A
C702        C716   1.411       .  A
C702        C710   1.385       .  A
C703        C711   1.386       .  A
C703        C714   1.410       .  A
C704        C712   1.386       .  A
C704        C715   1.410       .  A
C705        C706   1.367       .  A
C705        H717   1.082       .  S
C706        H718   1.082       .  S
C707        C708   1.367       .  A
C707        H719   1.082   1_556  S
C708        H720   1.082   1_556  S
C709        C710   1.375       .  A
C709        H721   1.082       .  S
C710        H722   1.082       .  S
C711        C712   1.374       .  A
C711        H723   1.082       .  S
C712        H724   1.082       .  S
C713        C824   1.480       .  S
C714        C860   1.479       .  S
C715        C836   1.477       .  S
C716        C848   1.481       .  S
C727        C884   1.485       .  S
C727        N732   1.360       .  A
N728        C729   1.359       .  A
C729        C809   1.490       .  S
N730        C731   1.364       .  A
C731        C800   1.486       .  S
C731        N732   1.359       .  A
C733        C872   1.476       .  S
C733        N734   1.359       .  A
N734        C735   1.359       .  A
C735        C785   1.486       .  S
C735        N736   1.364       .  A
C737        C773   1.487       .  S
C737        N738   1.359       .  A
N739        C744   1.355       .  A
N739        C743   1.354       .  A
N739        H771   1.039       .  S
N740        C747   1.354       .  A
N740        C748   1.354       .  A
N741        C746   1.355       .  A
N741        C745   1.355       .  A
N741        H772   1.040       .  S
N742        C749   1.353       .  A
N742        C750   1.353       .  A
C743        C751   1.388       .  A
C743        C759   1.418       .  A
C744        C760   1.417       .  A
C744        C752   1.387       .  A
C745        C753   1.387       .  A
C745        C762   1.417       .  A
C746        C761   1.416       .  A
C746        C754   1.387       .  A
C747        C759   1.419       .  A
C747        C755   1.386       .  A
C748        C762   1.419       .  A
C748        C756   1.386       .  A
C749        C757   1.386       .  A
C749        C760   1.417       .  A
C750        C758   1.386       .  A
C750        C761   1.417       .  A
C751        C752   1.373       .  A
C751        H763   1.082       .  S
C752        H764   1.082       .  S
C753        C754   1.372       .  A
C753        H765   1.082       .  S
C754        H766   1.082       .  S
C755        C756   1.381       .  A
C755        H767   1.082       .  S
C756        H768   1.082       .  S
C757        C758   1.380       .  A
C759        C797   1.497       .  S
C760        C788   1.496       .  S
C761        C776   1.496       .  S
C762        C812   1.500       .  S
C773        C774   1.407       .  A
C774        C775   1.407       .  A
C774        H783   1.084       .  S
C775        C776   1.415       .  A
C775        S779   1.804       .  S
C777        C778   1.401       .  A
C777        H784   1.084       .  S
C778        S780   1.801       .  S
S779        H782   1.405       .  S
S780        H781   1.407       .  S
C785        C786   1.407       .  A
C786        C787   1.406       .  A
C786        H795   1.084       .  S
C787        C788   1.415       .  A
C787        S791   1.804       .  S
C789        C790   1.399       .  A
C789        H796   1.084       .  S
C790        S792   1.800       .  S
S791        H794   1.405       .  S
S792        H793   1.407       .  S
C797        C802   1.414       .  A
C798        C799   1.403       .  A
C798        H807   1.084       .  S
C799        S803   1.804       .  S
C800        C801   1.406       .  A
C801        C802   1.405       .  A
C801        H808   1.084       .  S
C802        S804   1.803       .  S
S803        H806   1.407       .  S
S804        H805   1.405       .  S
C809        C814   1.418       .  A
C810        C811   1.404       .  A
C810        H819   1.084       .  S
C811        S815   1.804       .  S
C812        C813   1.403       .  A
C813        C814   1.405       .  A
C813        H820   1.084       .  S
C814        S816   1.802       .  S
S815        H818   1.406       .  S
S816        H817   1.407       .  S
C821        C822   1.409   1_556  A
C821        C826   1.418       .  A
C822        C823   1.395       .  A
C822        H831   1.084       .  S
C823        C824   1.408   1_554  A
C823        S827   1.805       .  S
C824        C825   1.401       .  A
C825        C826   1.398       .  A
C825        H832   1.084       .  S
C826        S828   1.802       .  S
S827        H830   1.405       .  S
S828        H829   1.407       .  S
C833        C834   1.405       .  A
C833        C838   1.416   1_556  A
C834        C835   1.396       .  A
C834        H843   1.084       .  S
C835        C836   1.410       .  A
C835        S839   1.804       .  S
C836        C837   1.399   1_556  A
C837        C838   1.394       .  A
C837        H844   1.084       .  S
C838        S840   1.803       .  S
S839        H842   1.405       .  S
S840        H841   1.407       .  S
C845        C846   1.406       .  A
C845        C850   1.418   1_556  A
C846        C847   1.398       .  A
C846        H855   1.084       .  S
C847        C848   1.410       .  A
C847        S851   1.804       .  S
C848        C849   1.400   1_556  A
C849        C850   1.397       .  A
C849        H856   1.084       .  S
C850        S852   1.804       .  S
S851        H854   1.405       .  S
S852        H853   1.408       .  S
C857        C858   1.403   1_554  A
C857        C862   1.416       .  A
C858        C859   1.395       .  A
C858        H867   1.084       .  S
C859        C860   1.410       .  A
C859        S863   1.804       .  S
C860        C861   1.401   1_556  A
C861        C862   1.398       .  A
C861        H868   1.084       .  S
C862        S864   1.804       .  S
S863        H866   1.404       .  S
S864        H865   1.407       .  S
C869        C870   1.408       .  A
C870        C871   1.402       .  A
C870        H879   1.084       .  S
C871        C872   1.412       .  A
C871        S875   1.805       .  S
C873        C874   1.402       .  A
C873        H880   1.084       .  S
C874        S876   1.801       .  S
S876        H877   1.407       .  S
C881        C886   1.415       .  A
C882        C883   1.400       .  A
C882        H891   1.084       .  S
C883        S887   1.803       .  S
C884        C885   1.405       .  A
C885        C886   1.405       .  A
C885        H892   1.083       .  S
C886        S888   1.809       .  S
S887        H890   1.407       .  S
S888        H889   1.407       .  S
