geometry optimzed in LAMMPS
_audit_creation_date              2020-12-01 
_audit_creation_method            'lammps2cif' 
_symmetry_space_group_name_H-M    'P1' 
_symmetry_Int_Tables_number       1 
_symmetry_cell_setting            triclinic 
loop_ 
_symmetry_equiv_pos_as_xyz 
  x,y,z 
_cell_length_a                    48.92714507 
_cell_length_b                    48.88144786855038 
_cell_length_c                    48.84821835293518 
_cell_angle_alpha                 89.83695003500748 
_cell_angle_beta                  89.71501184391182 
_cell_angle_gamma                 90.02588527508377 
loop_ 
_atom_site_label 
_atom_site_type_symbol 
_atom_site_fract_x 
_atom_site_fract_y 
_atom_site_fract_z 
_atom_site_charge 
C1          C  0.22320555  0.80208460  0.47496781     0.82000
N2          N  0.20589637  0.82375544  0.47477785    -0.76300
C3          C  0.19796996  0.83594172  0.49830434     0.84400
N4          N  0.20727854  0.82623238  0.52234609    -0.76300
C5          C  0.22438246  0.80449493  0.52359648     0.84500
N6          N  0.23228171  0.79185943  0.49963784    -0.78000
C7          C  0.78476946  0.20804976  0.52118195     0.82000
N8          N  0.80582881  0.19024782  0.52154553    -0.76300
C9          C  0.81910265  0.18307848  0.49844559     0.84400
N10         N  0.81110684  0.19400947  0.47425873    -0.76300
C11         C  0.78969516  0.21171014  0.47312719     0.84500
N12         N  0.77635454  0.21897446  0.49677758    -0.78000
C13         C  0.78718296  0.79188543  0.48425082     0.82000
N14         N  0.80680007  0.81152122  0.48478969    -0.76300
C15         C  0.82043410  0.81707710  0.50817614     0.84400
N16         N  0.81414028  0.80315932  0.53122133    -0.76300
C17         C  0.79430392  0.78386849  0.53147434     0.84500
N18         N  0.78066801  0.77795027  0.50779276    -0.78000
C19         C  0.47761124  0.80392711  0.21777049     0.82000
N20         N  0.47931159  0.82552746  0.20022977    -0.76300
C21         C  0.50375117  0.83661163  0.19311365     0.84400
N22         N  0.52673779  0.82606913  0.20398940    -0.76300
C23         C  0.52597049  0.80450435  0.22141724     0.84500
N24         N  0.50122917  0.79295898  0.22827943    -0.78000
C25         C  0.77891249  0.47847260  0.20123345     0.82000
N26         N  0.77359111  0.50277259  0.21424752    -0.76300
C27         C  0.78638115  0.52618620  0.20536398     0.84400
N28         N  0.80446698  0.52474237  0.18429877    -0.76300
C29         C  0.80998392  0.50076753  0.17179742     0.84500
N30         N  0.79711688  0.47782112  0.18028334    -0.78000
C31         C  0.79211025  0.47952921  0.78810912     0.82000
N32         N  0.77936988  0.50380482  0.78190056    -0.76300
C33         C  0.78682272  0.52715854  0.79559569     0.84400
N34         N  0.80662884  0.52588714  0.81481639    -0.76300
C35         C  0.81938303  0.50211206  0.82067455     0.84500
N36         N  0.81199513  0.47918758  0.80730229    -0.78000
C37         C  0.47530836  0.20384750  0.77804082     0.82000
N38         N  0.50048335  0.21456362  0.77130852    -0.76300
C39         C  0.52375046  0.20120844  0.77966578     0.84400
N40         N  0.52143564  0.17808399  0.79479333    -0.76300
C41         C  0.49675737  0.16788978  0.80198264     0.84500
N42         N  0.47385578  0.18077449  0.79346769    -0.78000
C43         C  0.21365388  0.47564059  0.79180622     0.82000
N44         N  0.19629693  0.47756583  0.81342065    -0.76300
C45         C  0.18635797  0.50197354  0.82176923     0.84400
N46         N  0.19403127  0.52489930  0.80822830    -0.76300
C47         C  0.21161808  0.52366243  0.78666400     0.84500
N48         N  0.22154755  0.49887150  0.77823398    -0.78000
C49         C  0.47910252  0.78012807  0.80708560     0.82000
N50         N  0.48025148  0.79462080  0.83069443    -0.76300
C51         C  0.50429335  0.80357244  0.84092197     0.84400
N52         N  0.52770590  0.79761658  0.82728638    -0.76300
C53         C  0.52743253  0.78295426  0.80376458     0.84500
N54         N  0.50292097  0.77431591  0.79326510    -0.78000
C55         C  0.01952041  0.30235430  0.27691699     0.82000
N56         N  0.99502152  0.29266433  0.26722384    -0.76300
C57         C  0.97105541  0.30357611  0.27715391     0.84400
N58         N  0.97201565  0.32310127  0.29667764    -0.76300
C59         C  0.99604071  0.33219306  0.30647745     0.84500
N60         N  0.01959203  0.32194655  0.29642565    -0.78000
C61         C  0.23400131  0.27224916  0.23778474     0.04000
C62         C  0.22084552  0.25926377  0.26007864     0.04000
C63         C  0.23351828  0.23667429  0.27291277     0.04000
C64         C  0.25669164  0.22455005  0.26051802     0.04000
C65         C  0.27000373  0.23761307  0.23830050     0.04000
C66         C  0.25733966  0.26024260  0.22564998     0.04000
C67         C  0.29440851  0.02291325  0.27825546     0.82000
N68         N  0.28023876  0.00001620  0.27057292    -0.76300
C69         C  0.28847978  0.97494600  0.27999188     0.84400
N70         N  0.31018721  0.97314066  0.29698803    -0.76300
C71         C  0.32416162  0.99572971  0.30450463     0.84500
N72         N  0.31616098  0.02041584  0.29509253    -0.78000
C73         C  0.22618504  0.73785872  0.26019571     0.04000
C74         C  0.23852470  0.76115008  0.27228383     0.04000
C75         C  0.26147635  0.77334933  0.25922075     0.04000
C76         C  0.27547335  0.75926275  0.23810972     0.04000
C77         C  0.26353888  0.73560633  0.22653706     0.04000
C78         C  0.24010349  0.72373441  0.23899360     0.04000
C79         C  0.73538097  0.22789826  0.25786902     0.04000
C80         C  0.75694567  0.24122802  0.27155428     0.04000
C81         C  0.76895943  0.26490959  0.25992195     0.04000
C82         C  0.75620333  0.27770207  0.23750167     0.04000
C83         C  0.73475494  0.26436133  0.22371852     0.04000
C84         C  0.72281582  0.24068655  0.23526567     0.04000
C85         C  0.71123043  0.02626648  0.28637989     0.82000
N86         N  0.69174437  0.02675559  0.30618839    -0.76300
C87         C  0.68507257  0.00398251  0.32045793     0.84400
N88         N  0.69813099  0.98026847  0.31480174    -0.76300
C89         C  0.71765105  0.97901767  0.29502462     0.84500
N90         N  0.72432088  0.00216858  0.28054456    -0.78000
C91         C  0.77275330  0.73951844  0.26948767     0.04000
C92         C  0.76034000  0.76222832  0.28228670     0.04000
C93         C  0.73894562  0.77624255  0.26896686     0.04000
C94         C  0.72616152  0.76417606  0.24609913     0.04000
C95         C  0.73805533  0.74096527  0.23335152     0.04000
C96         C  0.76031105  0.72746482  0.24628900     0.04000
C97         C  0.02329903  0.70730620  0.28977229     0.82000
N98         N  0.99915336  0.71536584  0.27794083    -0.76300
C99         C  0.97497251  0.70420327  0.28720083     0.84400
N100        N  0.97537727  0.68554263  0.30769024    -0.76300
C101        C  0.99899403  0.67791259  0.31970297     0.84500
N102        N  0.02281155  0.68907814  0.31073876    -0.78000
C103        C  0.28915981  0.29843819  0.02454293     0.82000
N104        N  0.27762869  0.28747228  0.00153049    -0.76300
C105        C  0.28300754  0.29898056  0.97644762     0.84400
N106        N  0.29974329  0.32111729  0.97470978    -0.76300
C107        C  0.31084667  0.33211475  0.99753734     0.84500
N108        N  0.30555545  0.32065365  0.02219023    -0.78000
C109        C  0.23545622  0.27252566  0.76204554     0.04000
C110        C  0.25792962  0.26017310  0.77571744     0.04000
C111        C  0.27198590  0.23789462  0.76320299     0.04000
C112        C  0.25979718  0.22479086  0.74034873     0.04000
C113        C  0.23744569  0.23723026  0.72692986     0.04000
C114        C  0.22376392  0.25950853  0.73908218     0.04000
C115        C  0.27994499  0.02233277  0.70434308     0.82000
N116        N  0.27177547  0.99823505  0.71623935    -0.76300
C117        C  0.28114555  0.97399978  0.70576889     0.84400
N118        N  0.29858871  0.97425285  0.68417361    -0.76300
C119        C  0.30688642  0.99789775  0.67244074     0.84500
N120        N  0.29755025  0.02184574  0.68278199    -0.78000
C121        C  0.27794890  0.75854848  0.76155574     0.04000
C122        C  0.26570841  0.77194087  0.73895325     0.04000
C123        C  0.24270485  0.76022691  0.72603328     0.04000
C124        C  0.22918721  0.73795079  0.73852645     0.04000
C125        C  0.24128801  0.72457988  0.76115731     0.04000
C126        C  0.26446566  0.73607477  0.77407510     0.04000
C127        C  0.02770781  0.70482085  0.71249250     0.82000
N128        N  0.00303967  0.71543563  0.72100943    -0.76300
C129        C  0.97925318  0.70254876  0.71334808     0.84400
N130        N  0.98060228  0.67996951  0.69745758    -0.76300
C131        C  0.00495371  0.66974191  0.68885539     0.84500
N132        N  0.02823183  0.68233307  0.69660700    -0.78000
C133        C  0.02218649  0.27002047  0.69605417     0.82000
N134        N  0.02108319  0.28482680  0.67259202    -0.76300
C135        C  0.99761562  0.29654113  0.66400833     0.84400
N136        N  0.97471717  0.29327097  0.67924227    -0.76300
C137        C  0.97488394  0.27831573  0.70263916     0.84500
N138        N  0.99883447  0.26667424  0.71142678    -0.78000
C139        C  0.76029837  0.24168235  0.72252465     0.04000
C140        C  0.73832255  0.22845166  0.73605129     0.04000
C141        C  0.72595432  0.24100084  0.75901076     0.04000
C142        C  0.73833684  0.26416726  0.77119279     0.04000
C143        C  0.76015350  0.27754001  0.75746503     0.04000
C144        C  0.77277099  0.26478615  0.73472580     0.04000
C145        C  0.69672005  0.02656115  0.71014970     0.82000
N146        N  0.71057412  0.00295364  0.71663384    -0.76300
C147        C  0.70025733  0.97812785  0.70854472     0.84400
N148        N  0.67695635  0.97733767  0.69377433    -0.76300
C149        C  0.66325574  0.00041755  0.68724326     0.84500
N150        N  0.67313606  0.02489656  0.69562412    -0.78000
C151        C  0.76551836  0.76560949  0.73400292     0.04000
C152        C  0.77787062  0.74277954  0.74676599     0.04000
C153        C  0.76529465  0.73076036  0.77003678     0.04000
C154        C  0.74340143  0.74465205  0.78325396     0.04000
C155        C  0.73079514  0.76729977  0.77025761     0.04000
C156        C  0.74335010  0.77916163  0.74686835     0.04000
C157        C  0.30230541  0.71024591  0.02474493     0.82000
N158        N  0.32437527  0.69379558  0.02536188    -0.76300
C159        C  0.33486870  0.68244181  0.00255036     0.84400
N160        N  0.32275718  0.68768879  0.97817710    -0.76300
C161        C  0.30053140  0.70432473  0.97653945     0.84500
N162        N  0.29007306  0.71583188  0.00007781    -0.78000
C163        C  0.70440614  0.28354926  0.02136327     0.82000
N164        N  0.71633817  0.27496451  0.99746666    -0.76300
C165        C  0.70488849  0.28233699  0.97300619     0.84400
N166        N  0.68223949  0.29831592  0.97277858    -0.76300
C167        C  0.67075380  0.30713154  0.99636666     0.84500
N168        N  0.68182398  0.29956618  0.02051304    -0.78000
C169        C  0.71046967  0.70020389  0.03167378     0.82000
N170        N  0.69669080  0.67620265  0.03094970    -0.76300
C171        C  0.69307274  0.66250338  0.00728144     0.84400
N172        N  0.70314127  0.67318301  0.98373205    -0.76300
C173        C  0.71668806  0.69740535  0.98353938     0.84500
N174        N  0.72055304  0.71114754  0.00773065    -0.78000
C175        C  0.47237788  0.21865557  0.20385760     0.82000
N176        N  0.47158671  0.20325472  0.18084625    -0.76300
C177        C  0.49460770  0.19737429  0.16669987     0.84400
N178        N  0.51877315  0.20688092  0.17585485    -0.76300
C179        C  0.52052055  0.22223044  0.19881886     0.84500
N180        N  0.49706998  0.22819735  0.21324851    -0.78000
C181        C  0.20168055  0.47400068  0.22207341     0.82000
N182        N  0.21508491  0.49764261  0.22881897    -0.76300
C183        C  0.20618934  0.52194115  0.21816842     0.84400
N184        N  0.18469195  0.52222847  0.20076187    -0.76300
C185        C  0.17157512  0.49886705  0.19391183     0.84500
N186        N  0.18018402  0.47496145  0.20471287    -0.78000
C187        C  0.21811784  0.20517227  0.52482989     0.82000
N188        N  0.22863443  0.21356351  0.50007759    -0.76300
C189        C  0.22070212  0.20036583  0.47663828     0.84400
N190        N  0.20247089  0.17949279  0.47838050    -0.76300
C191        C  0.19195073  0.17151462  0.50276196     0.84500
N192        N  0.19982472  0.18445040  0.52573565    -0.78000
O193        O  0.97251665  0.97216250  0.48659839    -0.72700
O194        O  0.02778629  0.02720411  0.48502338    -0.72700
O195        O  0.02767030  0.97244479  0.48601494    -0.72800
O196        O  0.97263069  0.02731722  0.48544687    -0.72800
O197        O  0.97278538  0.02823303  0.53099901    -0.72700
O198        O  0.02835926  0.97280943  0.53156958    -0.72700
O199        O  0.02818102  0.02779979  0.53059235    -0.72700
O200        O  0.97282028  0.97287694  0.53220762    -0.72800
Ni201      Ni  0.00008508  0.99973296  0.48417415     1.25400
Ni202      Ni  0.00046983  0.00042708  0.53300183     1.25400
C203        C  0.96349265  0.96347961  0.50968693     0.89500
C204        C  0.03748685  0.03624484  0.50754418     0.89400
C205        C  0.03773150  0.96408139  0.50865298     0.89500
C206        C  0.96364705  0.03704915  0.50804240     0.89600
O207        O  0.48650253  0.98277532  0.03313892    -0.72700
O208        O  0.48303764  0.02388303  0.96638966    -0.72700
O209        O  0.48601823  0.97000545  0.97942252    -0.72800
O210        O  0.48326322  0.03632346  0.02042796    -0.72800
O211        O  0.52881220  0.03778150  0.02087021    -0.72700
O212        O  0.53141187  0.97341503  0.97626191    -0.72700
O213        O  0.52842540  0.02774808  0.96616652    -0.72700
O214        O  0.53205210  0.98340152  0.03062091    -0.72800
Ni215      Ni  0.48307821  0.00320228  0.99983798     1.25400
Ni216      Ni  0.53182316  0.00573457  0.99842499     1.25400
C217        C  0.50991291  0.97592847  0.04255700     0.89500
C218        C  0.50516499  0.03276500  0.95535077     0.89400
C219        C  0.50907835  0.96079978  0.97106816     0.89500
C220        C  0.50555879  0.04758167  0.02805504     0.89600
O221        O  0.02742735  0.47563553  0.02984858    -0.72700
O222        O  0.97787441  0.47680061  0.96963507    -0.72700
O223        O  0.03295967  0.47857836  0.97489401    -0.72800
O224        O  0.97246575  0.47424267  0.02477680    -0.72800
O225        O  0.97189063  0.51980414  0.02690980    -0.72700
O226        O  0.03069260  0.52417444  0.97602022    -0.72700
O227        O  0.97578813  0.52230131  0.97215521    -0.72700
O228        O  0.02648780  0.52120471  0.03139615    -0.72800
Ni229      Ni  0.00274639  0.47464232  0.99966450     1.25400
Ni230      Ni  0.00120826  0.52347194  0.00164794     1.25400
C231        C  0.03496852  0.49819522  0.04070756     0.89500
C232        C  0.96829162  0.49971677  0.96131281     0.89400
C233        C  0.04162402  0.50213175  0.96719828     0.89500
C234        C  0.96253875  0.49653074  0.03436521     0.89600
O235        O  0.48851598  0.52962226  0.02503344    -0.72700
O236        O  0.52482780  0.46211752  0.01399824    -0.72700
O237        O  0.54087528  0.51416118  0.01817137    -0.72800
O238        O  0.47258014  0.47711484  0.02045331    -0.72800
O239        O  0.46894945  0.48183499  0.97528204    -0.72700
O240        O  0.53722216  0.51967065  0.97301106    -0.72700
O241        O  0.52193370  0.46702503  0.96867911    -0.72700
O242        O  0.48464669  0.53495762  0.97982568    -0.72800
Ni243      Ni  0.50679154  0.49563429  0.02097307     1.25400
Ni244      Ni  0.50292408  0.50110955  0.97250820     1.25400
C245        C  0.48064741  0.54345568  0.00431892     0.89500
C246        C  0.52982627  0.45361630  0.98978662     0.89400
C247        C  0.55055670  0.52260003  0.99527618     0.89500
C248        C  0.45974145  0.47269772  0.99815645     0.89600
O249        O  0.02310108  0.46338253  0.52479025    -0.72700
O250        O  0.02463673  0.52701222  0.47835482    -0.72700
O251        O  0.02491182  0.51810207  0.53359083    -0.72800
O252        O  0.02337782  0.47251991  0.47058309    -0.72800
O253        O  0.97782130  0.47338146  0.47130320    -0.72700
O254        O  0.97942361  0.51962253  0.53385295    -0.72700
O255        O  0.97912285  0.52776013  0.47901129    -0.72700
O256        O  0.97753819  0.46528658  0.52575487    -0.72800
Ni257      Ni  0.02569604  0.49531009  0.50188237     1.25400
Ni258      Ni  0.97690192  0.49663079  0.50251885     1.25400
C259        C  0.99992804  0.45369261  0.53249677     0.89500
C260        C  0.00191662  0.53743732  0.47044693     0.89400
C261        C  0.00241114  0.52609488  0.54441231     0.89500
C262        C  0.00036525  0.46528810  0.46069005     0.89600
O263        O  0.52558300  0.97788297  0.46963476    -0.72700
O264        O  0.46578751  0.97508230  0.52063632    -0.72700
O265        O  0.47096155  0.97467685  0.46544913    -0.72800
O266        O  0.52068645  0.97765742  0.52519355    -0.72800
O267        O  0.51964767  0.02327855  0.52421894    -0.72700
O268        O  0.46829323  0.02016169  0.46546078    -0.72700
O269        O  0.46473370  0.02072955  0.52085374    -0.72700
O270        O  0.52287729  0.02336521  0.46885585    -0.72800
Ni271      Ni  0.49589379  0.97467161  0.49528153     1.25400
Ni272      Ni  0.49379596  0.02349016  0.49485484     1.25400
C273        C  0.53355874  0.00111765  0.46026394     0.89500
C274        C  0.45566108  0.99765253  0.52930424     0.89400
C275        C  0.46164318  0.99693286  0.45534602     0.89500
C276        C  0.52812141  0.00083149  0.53476861     0.89600
C277        C  0.09840102  0.07849354  0.52927551     0.14400
C278        C  0.10449306  0.09284574  0.50507832     0.01400
C279        C  0.08843612  0.08867206  0.48173575     0.16400
C280        C  0.06653597  0.07044181  0.48257228     0.25800
C281        C  0.06014099  0.05620105  0.50689489    -0.40600
C282        C  0.07631149  0.06050859  0.53029855     0.32800
C283        C  0.12721884  0.11262346  0.50453663     0.01400
F284        F  0.09365397  0.10258592  0.45818704    -0.12900
F285        F  0.07122705  0.04694663  0.55408717    -0.13400
C286        C  0.14819888  0.11044662  0.48492509     0.16400
C287        C  0.16963730  0.12929047  0.48460940     0.25800
C288        C  0.17047570  0.15045170  0.50404307    -0.40500
C289        C  0.14977333  0.15212441  0.52408642     0.32700
C290        C  0.12812530  0.13366204  0.52400129     0.14400
F291        F  0.14811223  0.08987148  0.46630843    -0.12900
F292        F  0.14983563  0.17221189  0.54323165    -0.13400
F293        F  0.18987313  0.12641579  0.46571088    -0.15700
F294        F  0.10759148  0.13680939  0.54253930    -0.14200
F295        F  0.11416167  0.08162639  0.55187082    -0.14200
F296        F  0.05150539  0.06699459  0.45955162    -0.15600
C297        C  0.07038720  0.51825682  0.10637087     0.14400
C298        C  0.08967322  0.49719093  0.10921492     0.01400
C299        C  0.09037759  0.47595228  0.08991474     0.16400
C300        C  0.07242417  0.47610475  0.06773876     0.25800
C301        C  0.05357373  0.49762810  0.06442968    -0.40600
C302        C  0.05254402  0.51854739  0.08414928     0.32800
C303        C  0.10981540  0.49804062  0.13163183     0.01400
F304        F  0.10903388  0.45550181  0.09207767    -0.12900
F305        F  0.03391725  0.53904570  0.08225216    -0.13400
C306        C  0.11100014  0.47690459  0.15109569     0.16400
C307        C  0.13066658  0.47741816  0.17174499     0.25800
C308        C  0.14948136  0.49923529  0.17331025    -0.40500
C309        C  0.14771301  0.52074579  0.15412382     0.32700
C310        C  0.12818891  0.52002720  0.13340451     0.14400
F311        F  0.09278676  0.45595783  0.15036734    -0.12900
F312        F  0.16541727  0.54215054  0.15472600    -0.13400
F313        F  0.13094195  0.45678784  0.19042668    -0.15700
F314        F  0.12768116  0.54050953  0.11456969    -0.14200
F315        F  0.06873866  0.53851114  0.12526559    -0.14200
F316        F  0.07413455  0.45565146  0.04905299    -0.15600
C317        C  0.48033679  0.11246267  0.06180603     0.14400
C318        C  0.50009537  0.11630862  0.08209080     0.01400
C319        C  0.52207965  0.09799128  0.08415449     0.16400
C320        C  0.52418433  0.07590575  0.06618096     0.25800
C321        C  0.50425234  0.07181236  0.04593886    -0.40600
C322        C  0.48229884  0.09032179  0.04391183     0.32800
C323        C  0.49716778  0.13875813  0.10188815     0.01400
F324        F  0.54100898  0.10103310  0.10415710    -0.12900
F325        F  0.46278859  0.08708438  0.02453258    -0.13400
C326        C  0.47517855  0.13878788  0.12041842     0.16400
C327        C  0.47345068  0.15875397  0.14069435     0.25800
C328        C  0.49395073  0.17887385  0.14288183    -0.40500
C329        C  0.51517787  0.17961300  0.12327420     0.32700
C330        C  0.51677156  0.15963642  0.10297471     0.14400
F331        F  0.45607381  0.11864942  0.11969149    -0.12900
F332        F  0.53455104  0.19951010  0.12387344    -0.13400
F333        F  0.45252344  0.15736202  0.15901086    -0.15700
F334        F  0.53759416  0.16046005  0.08450692    -0.14200
F335        F  0.45917416  0.13025182  0.05937432    -0.14200
F336        F  0.54501453  0.05785248  0.06937500    -0.15600
C337        C  0.64151746  0.60794889  0.02609600     0.14400
C338        C  0.64544752  0.58911473  0.00484883     0.01400
C339        C  0.66660978  0.59308103  0.98586118     0.16400
C340        C  0.68254783  0.61671395  0.98686804     0.25800
C341        C  0.67765733  0.63655858  0.00718767    -0.40600
C342        C  0.65727238  0.63167618  0.02711658     0.32800
C343        C  0.62439445  0.56842722  0.99975432     0.01400
F344        F  0.67102839  0.57450807  0.96570156    -0.12900
F345        F  0.65110095  0.65074573  0.04635159    -0.13400
C346        C  0.60716786  0.57166542  0.97707737     0.16400
C347        C  0.58376903  0.55563764  0.97461133     0.25800
C348        C  0.57730147  0.53627799  0.99497799    -0.40500
C349        C  0.59595132  0.53140700  0.01631666     0.32700
C350        C  0.61917713  0.54769490  0.01891199     0.14400
F351        F  0.61204331  0.59168109  0.95832984    -0.12900
F352        F  0.59141206  0.51121170  0.03494794    -0.13400
F353        F  0.56679202  0.56016952  0.95316162    -0.15700
F354        F  0.63599337  0.54398427  0.04063283    -0.14200
F355        F  0.62110375  0.60428763  0.04471490    -0.14200
F356        F  0.70220107  0.62043495  0.96750524    -0.15600
C357        C  0.60671176  0.34342767  0.97323305     0.14400
C358        C  0.60602531  0.36550316  0.99140934     0.01400
C359        C  0.62568739  0.36764986  0.01206728     0.16400
C360        C  0.64625161  0.34804126  0.01425710     0.25800
C361        C  0.64748488  0.32616581  0.99563935    -0.40600
C362        C  0.62728406  0.32375415  0.97535852     0.32800
C363        C  0.58466956  0.38633546  0.98895008     0.01400
F364        F  0.62535331  0.38916388  0.02960961    -0.12900
F365        F  0.62728966  0.30223391  0.95784749    -0.13400
C366        C  0.56374292  0.38751142  0.00853489     0.16400
C367        C  0.54447020  0.40840719  0.00744203     0.25800
C368        C  0.54616062  0.42863455  0.98694001    -0.40500
C369        C  0.56647352  0.42670720  0.96656417     0.32700
C370        C  0.58573426  0.40566083  0.96768269     0.14400
F371        F  0.56252673  0.36885805  0.02916574    -0.12900
F372        F  0.56900355  0.44624445  0.94688877    -0.13400
F373        F  0.52462948  0.40940778  0.02696543    -0.15700
F374        F  0.60638914  0.40504081  0.94902972    -0.14200
F375        F  0.58740589  0.34105807  0.95349878    -0.14200
F376        F  0.66565234  0.35113224  0.03378730    -0.15600
C377        C  0.42893109  0.59296943  0.03172923     0.14400
C378        C  0.43071558  0.61420236  0.01221350     0.01400
C379        C  0.45222571  0.61400787  0.99300224     0.16400
C380        C  0.46930068  0.59128315  0.99092353     0.25800
C381        C  0.46584815  0.56907072  0.00886299    -0.40600
C382        C  0.44670657  0.57078197  0.03029426     0.32800
C383        C  0.40801934  0.63395232  0.00933719     0.01400
F384        F  0.45577272  0.63521440  0.97531932    -0.12900
F385        F  0.44351950  0.54983835  0.04838463    -0.13400
C386        C  0.39704739  0.64709665  0.03235748     0.16400
C387        C  0.37287865  0.66194358  0.03029122     0.25800
C388        C  0.35992109  0.66549363  0.00467848    -0.40500
C389        C  0.37151345  0.65300687  0.98144134     0.32700
C390        C  0.39511638  0.63720670  0.98381824     0.14400
F391        F  0.40944919  0.64519871  0.05711032    -0.12900
F392        F  0.35961282  0.65513728  0.95648108    -0.13400
F393        F  0.36198145  0.67214744  0.05375293    -0.15700
F394        F  0.40456687  0.62398786  0.96126622    -0.14200
F395        F  0.40852961  0.59231249  0.05068181    -0.14200
F396        F  0.48877986  0.59072154  0.97103224    -0.15600
C397        C  0.74255040  0.75354083  0.86065818     0.14400
C398        C  0.73109508  0.72874720  0.86986786     0.01400
C399        C  0.72166589  0.70991326  0.85019690     0.16400
C400        C  0.72454065  0.71532371  0.82204040     0.25800
C401        C  0.73740210  0.73939932  0.81291198    -0.40600
C402        C  0.74567150  0.75879427  0.83254601     0.32800
C403        C  0.72963344  0.72222471  0.89983734     0.01400
F404        F  0.70937177  0.68631848  0.85828557    -0.12900
F405        F  0.75745283  0.78268320  0.82447925    -0.13400
C406        C  0.71670175  0.74006143  0.91851002     0.16400
C407        C  0.71470279  0.73330106  0.94649675     0.25800
C408        C  0.72518864  0.70836868  0.95632375    -0.40500
C409        C  0.73881047  0.69096551  0.93776639     0.32700
C410        C  0.74115361  0.69786543  0.90996346     0.14400
F411        F  0.70451707  0.76327851  0.90938565    -0.12900
F412        F  0.74930403  0.66676893  0.94650503    -0.13400
F413        F  0.70072035  0.75018021  0.96355382    -0.15700
F414        F  0.75443463  0.68048222  0.89280892    -0.14200
F415        F  0.75173160  0.77227453  0.87892437    -0.14200
F416        F  0.71432934  0.69725307  0.80373908    -0.15600
C417        C  0.59850815  0.01951890  0.64948739     0.14400
C418        C  0.59863924  0.00005872  0.62845286     0.01400
C419        C  0.61804916  0.97902023  0.62861049     0.16400
C420        C  0.63838545  0.97846776  0.64846502     0.25800
C421        C  0.63951446  0.99897678  0.66868542    -0.40600
C422        C  0.61870245  0.01886976  0.66966025     0.32800
C423        C  0.57927600  0.00188439  0.60561257     0.01400
F424        F  0.61787682  0.95954237  0.60883409    -0.12900
F425        F  0.61784950  0.03760785  0.69010129    -0.13400
C426        C  0.58306637  0.02159049  0.58494633     0.16400
C427        C  0.56653224  0.02132627  0.56164487     0.25800
C428        C  0.54591906  0.00144535  0.55896708    -0.40500
C429        C  0.54195363  0.98209630  0.57998878     0.32700
C430        C  0.55860793  0.98224840  0.60305840     0.14400
F431        F  0.60341085  0.04039286  0.58694298    -0.12900
F432        F  0.52156652  0.96332212  0.57843429    -0.13400
F433        F  0.57133165  0.03974739  0.54131002    -0.15700
F434        F  0.55476032  0.96307262  0.62287241    -0.14200
F435        F  0.57896169  0.03920209  0.65033160    -0.14200
F436        F  0.65768105  0.95856190  0.64696691    -0.15600
C437        C  0.71781162  0.91217885  0.74564357     0.14400
C438        C  0.72387577  0.89467463  0.72353170     0.01400
C439        C  0.72511353  0.90592248  0.69702044     0.16400
C440        C  0.72002000  0.93389466  0.69270519     0.25800
C441        C  0.71330588  0.95131755  0.71468781    -0.40600
C442        C  0.71228804  0.94013457  0.74125270     0.32800
C443        C  0.72902283  0.86483164  0.72834483     0.01400
F444        F  0.73088084  0.88974804  0.67519399    -0.12900
F445        F  0.70389320  0.95572077  0.76265477    -0.13400
C446        C  0.71171594  0.84451153  0.71739585     0.16400
C447        C  0.71606964  0.81659225  0.72331950     0.25800
C448        C  0.73801400  0.80849450  0.73991315    -0.40500
C449        C  0.75551446  0.82878395  0.75042571     0.32700
C450        C  0.75102406  0.85656600  0.74479229     0.14400
F451        F  0.69014922  0.85175989  0.70159554    -0.12900
F452        F  0.77688870  0.82167881  0.76657651    -0.13400
F453        F  0.69874880  0.79750712  0.71313963    -0.15700
F454        F  0.76828850  0.87551650  0.75537839    -0.14200
F455        F  0.71580643  0.90180371  0.77139058    -0.14200
F456        F  0.72042733  0.94386996  0.66672554    -0.15600
C457        C  0.74541688  0.24710128  0.84666703     0.14400
C458        C  0.73207443  0.26898510  0.85948700     0.01400
C459        C  0.72109367  0.29010184  0.84316579     0.16400
C460        C  0.72298267  0.28901310  0.81438673     0.25800
C461        C  0.73603504  0.26682149  0.80158079    -0.40600
C462        C  0.74763392  0.24618762  0.81810011     0.32800
C463        C  0.72769431  0.26870310  0.88966103     0.01400
F464        F  0.70824421  0.31158689  0.85517352    -0.12900
F465        F  0.76126964  0.22500203  0.80643591    -0.13400
C466        C  0.74671086  0.28051546  0.90771344     0.16400
C467        C  0.74066490  0.28265457  0.93586090     0.25800
C468        C  0.71552180  0.27305679  0.94617815    -0.40500
C469        C  0.69743612  0.25971066  0.92831493     0.32700
C470        C  0.70354388  0.25739558  0.90040992     0.14400
F471        F  0.77041748  0.29123602  0.89788685    -0.12900
F472        F  0.67302687  0.25021890  0.93772895    -0.13400
F473        F  0.75828963  0.29603332  0.95253711    -0.15700
F474        F  0.68523675  0.24517403  0.88359425    -0.14200
F475        F  0.75603563  0.22639023  0.86183570    -0.14200
F476        F  0.71177750  0.30931982  0.79912704    -0.15600
C477        C  0.73839295  0.09269894  0.71068942     0.14400
C478        C  0.71953750  0.11122046  0.72236769     0.01400
C479        C  0.69470411  0.10083470  0.73259711     0.16400
C480        C  0.68824169  0.07296572  0.73010537     0.25800
C481        C  0.70659270  0.05449333  0.71768784    -0.40600
C482        C  0.73195883  0.06461030  0.70832916     0.32800
C483        C  0.72535353  0.14133827  0.72400692     0.01400
F484        F  0.67646103  0.11785898  0.74482173    -0.12900
F485        F  0.74963517  0.04773743  0.69511142    -0.13400
C486        C  0.70847403  0.16057744  0.71060783     0.16400
C487        C  0.71247543  0.18890252  0.71412528     0.25800
C488        C  0.73360151  0.19859729  0.73093324    -0.40500
C489        C  0.75068796  0.17940016  0.74393462     0.32700
C490        C  0.74665071  0.15116051  0.74051390     0.14400
F491        F  0.68795062  0.15191375  0.69416882    -0.12900
F492        F  0.77087590  0.18811002  0.76078281    -0.13400
F493        F  0.69542000  0.20672942  0.70148440    -0.15700
F494        F  0.76285483  0.13336403  0.75431844    -0.14200
F495        F  0.76246026  0.10203577  0.70032867    -0.14200
F496        F  0.66349549  0.06408908  0.73916925    -0.15600
C497        C  0.97937351  0.40284680  0.58709613     0.14400
C498        C  0.99672886  0.38062569  0.58115411     0.01400
C499        C  0.01452202  0.38238998  0.55850259     0.16400
C500        C  0.01592334  0.40638117  0.54294306     0.25800
C501        C  0.99875743  0.42857115  0.54908478    -0.40600
C502        C  0.97991556  0.42631764  0.57076943     0.32800
C503        C  0.99723115  0.35638353  0.59945526     0.01400
F504        F  0.03046347  0.36080703  0.55135420    -0.12900
F505        F  0.96285579  0.44735151  0.57695230    -0.13400
C506        C  0.97277617  0.34352959  0.60748674     0.16400
C507        C  0.97284677  0.32339080  0.62781322     0.25800
C508        C  0.99761634  0.31497041  0.63984760    -0.40500
C509        C  0.02234126  0.32614727  0.62990087     0.32700
C510        C  0.02207433  0.34705173  0.61039786     0.14400
F511        F  0.94865101  0.35090632  0.59601431    -0.12900
F512        F  0.04684315  0.31815027  0.64013202    -0.13400
F513        F  0.94853125  0.31263020  0.63598128    -0.15700
F514        F  0.04606354  0.35933186  0.60354155    -0.14200
F515        F  0.96274162  0.40241406  0.60944473    -0.14200
F516        F  0.03358364  0.40768143  0.52144670    -0.15600
C517        C  0.90576676  0.24885925  0.71874819     0.14400
C518        C  0.89090123  0.27274502  0.72500161     0.01400
C519        C  0.90521105  0.29732173  0.72900669     0.16400
C520        C  0.93359787  0.29840456  0.72484671     0.25800
C521        C  0.94826392  0.27490636  0.71684311    -0.40600
C522        C  0.93424738  0.24992914  0.71486716     0.32800
C523        C  0.86055345  0.27190722  0.72750929     0.01400
F524        F  0.89159394  0.32040605  0.73633640    -0.12900
F525        F  0.94787244  0.22701927  0.70711954    -0.13400
C526        C  0.84834581  0.25778325  0.74938830     0.16400
C527        C  0.81988592  0.25603967  0.75152987     0.25800
C528        C  0.80289736  0.26832244  0.73180601    -0.40500
C529        C  0.81497298  0.28291257  0.71008177     0.32700
C530        C  0.84365544  0.28467419  0.70792974     0.14400
F531        F  0.86408556  0.24568413  0.76876814    -0.12900
F532        F  0.79907095  0.29504700  0.69088068    -0.13400
F533        F  0.80875880  0.24196508  0.77284218    -0.15700
F534        F  0.85498352  0.29811025  0.68632445    -0.14200
F535        F  0.89248767  0.22476321  0.71506312    -0.14200
F536        F  0.94668818  0.32276169  0.72734301    -0.15600
C537        C  0.98635686  0.60253758  0.65588292     0.14400
C538        C  0.00703481  0.59987874  0.63599900     0.01400
C539        C  0.02810339  0.61943774  0.63484218     0.16400
C540        C  0.02785989  0.64181166  0.65251120     0.25800
C541        C  0.00617848  0.64535579  0.67130454    -0.40600
C542        C  0.98563244  0.62529653  0.67298246     0.32800
C543        C  0.00502876  0.57858846  0.61466475     0.01400
F544        F  0.04822908  0.61764434  0.61567422    -0.12900
F545        F  0.96478975  0.62767963  0.69127085    -0.13400
C546        C  0.98112458  0.57657772  0.59895872     0.16400
C547        C  0.97986665  0.55864615  0.57687852     0.25800
C548        C  0.00291835  0.54310065  0.56936227    -0.40500
C549        C  0.02648089  0.54427560  0.58579975     0.32700
C550        C  0.02736419  0.56160468  0.60847507     0.14400
F551        F  0.95935019  0.59302137  0.60414990    -0.12900
F552        F  0.04867936  0.52861129  0.58004001    -0.13400
F553        F  0.95636120  0.55740708  0.56225834    -0.15700
F554        F  0.05010582  0.56193433  0.62429362    -0.14200
F555        F  0.96657293  0.58320499  0.65845063    -0.14200
F556        F  0.04816514  0.66067207  0.65028318    -0.15600
C557        C  0.85513634  0.75052347  0.74836586     0.14400
C558        C  0.86446349  0.72867176  0.73215381     0.01400
C559        C  0.84477744  0.71142627  0.71993240     0.16400
C560        C  0.81653443  0.71576253  0.72420480     0.25800
C561        C  0.80746829  0.73724931  0.74103148    -0.40600
C562        C  0.82706841  0.75462821  0.75282211     0.32800
C563        C  0.89460206  0.72323972  0.72905549     0.01400
F564        F  0.85294142  0.69046588  0.70367619    -0.12900
F565        F  0.81884004  0.77566465  0.76897210    -0.13400
C566        C  0.90573395  0.69827161  0.73805176     0.16400
C567        C  0.93367655  0.69255636  0.73458189     0.25800
C568        C  0.95145753  0.71176245  0.72228917    -0.40500
C569        C  0.94065075  0.73713516  0.71409201     0.32700
C570        C  0.91250844  0.74286326  0.71745634     0.14400
F571        F  0.88945994  0.67917233  0.75011535    -0.12900
F572        F  0.95695521  0.75570210  0.70126513    -0.13400
F573        F  0.94331041  0.66777109  0.74261585    -0.15700
F574        F  0.90253963  0.76710425  0.70827550    -0.14200
F575        F  0.87327239  0.76751250  0.76061179    -0.14200
F576        F  0.79815022  0.69908080  0.71190036    -0.15600
C577        C  0.25557110  0.73879534  0.85142902     0.14400
C578        C  0.27627083  0.72144044  0.86114739     0.01400
C579        C  0.29334993  0.70834321  0.84178116     0.16400
C580        C  0.28978688  0.71269936  0.81339466     0.25800
C581        C  0.26897732  0.73010692  0.80387334    -0.40600
C582        C  0.25197087  0.74301968  0.82325061     0.32800
C583        C  0.28011439  0.71749352  0.89142838     0.01400
F584        F  0.31412829  0.69214626  0.85043475    -0.12900
F585        F  0.23193483  0.76021197  0.81476255    -0.13400
C586        C  0.27787480  0.69137481  0.90339526     0.16400
C587        C  0.28235448  0.68757774  0.93158513     0.25800
C588        C  0.28924212  0.70977051  0.94864064    -0.40500
C589        C  0.29050906  0.73606919  0.93688478     0.32700
C590        C  0.28587732  0.73989332  0.90864235     0.14400
F591        F  0.27161508  0.66939766  0.88768539    -0.12900
F592        F  0.29801436  0.75781934  0.95233885    -0.13400
F593        F  0.28062580  0.66192354  0.94217260    -0.15700
F594        F  0.28835087  0.76537952  0.89780766    -0.14200
F595        F  0.23859941  0.75157728  0.86934238    -0.14200
F596        F  0.30690774  0.70037396  0.79530893    -0.15600
C597        C  0.16086615  0.71237285  0.71047069     0.14400
C598        C  0.14223189  0.72764141  0.72639967     0.01400
C599        C  0.15246140  0.74662155  0.74524818     0.16400
C600        C  0.18068097  0.75008563  0.74845409     0.25800
C601        C  0.19937121  0.73413110  0.73342103    -0.40600
C602        C  0.18928560  0.71541155  0.71415344     0.32800
C603        C  0.11209553  0.72380468  0.72387430     0.01400
F604        F  0.13498251  0.76213300  0.76028929    -0.12900
F605        F  0.20689908  0.70013485  0.69905881    -0.13400
C606        C  0.09711871  0.71106124  0.74504092     0.16400
C607        C  0.06871305  0.70728597  0.74272966     0.25800
C608        C  0.05463830  0.71676197  0.71949663    -0.40500
C609        C  0.06958210  0.73016808  0.69872929     0.32700
C610        C  0.09802206  0.73349748  0.70078882     0.14400
F611        F  0.11025891  0.70116836  0.76740442    -0.12900
F612        F  0.05674055  0.73866586  0.67565002    -0.13400
F613        F  0.05524055  0.69290058  0.76242151    -0.15700
F614        F  0.11190061  0.74567357  0.67993187    -0.14200
F615        F  0.15148535  0.69420381  0.69177014    -0.14200
F616        F  0.18990404  0.76933948  0.76614080    -0.15600
C617        C  0.41354410  0.01560169  0.59148866     0.14400
C618        C  0.39116032  0.99776662  0.58886678     0.01400
C619        C  0.38993854  0.98001556  0.56629998     0.16400
C620        C  0.41106003  0.97971696  0.54691031     0.25800
C621        C  0.43348947  0.99741064  0.54969402    -0.40600
C622        C  0.43450370  0.01544687  0.57201464     0.32800
C623        C  0.36918697  0.99756468  0.60973406     0.01400
F624        F  0.36807547  0.96326776  0.56287636    -0.12900
F625        F  0.45628382  0.03231738  0.57543704    -0.13400
C626        C  0.35436704  0.02148413  0.61528420     0.16400
C627        C  0.33386397  0.02153438  0.63526223     0.25800
C628        C  0.32770530  0.99754719  0.65017923    -0.40500
C629        C  0.34245391  0.97339523  0.64419079     0.32700
C630        C  0.36302938  0.97351056  0.62426370     0.14400
F631        F  0.35958071  0.04483876  0.60108933    -0.12900
F632        F  0.33757563  0.94968742  0.65795021    -0.13400
F633        F  0.32001495  0.04516119  0.63976021    -0.15700
F634        F  0.37746194  0.95022286  0.61965958    -0.14200
F635        F  0.41541369  0.03279886  0.61319457    -0.14200
F636        F  0.40928396  0.96266387  0.52509622    -0.15600
C637        C  0.29696607  0.90393564  0.73272562     0.14400
C638        C  0.27250376  0.88992606  0.72768980     0.01400
C639        C  0.24928799  0.90494294  0.71965095     0.16400
C640        C  0.25102608  0.93340489  0.71529955     0.25800
C641        C  0.27604144  0.94708547  0.71876235    -0.40600
C642        C  0.29877029  0.93215498  0.72811514     0.32800
C643        C  0.27152869  0.85962427  0.73047834     0.01400
F644        F  0.22547003  0.89174705  0.71439672    -0.12900
F645        F  0.32327979  0.94479918  0.73120867    -0.13400
C646        C  0.25817697  0.84763390  0.75295507     0.16400
C647        C  0.25723080  0.81915929  0.75578191     0.25800
C648        C  0.26961808  0.80201668  0.73618332    -0.40500
C649        C  0.28337615  0.81393271  0.71383744     0.32700
C650        C  0.28439918  0.84257005  0.71105633     0.14400
F651        F  0.24603980  0.86357182  0.77220781    -0.12900
F652        F  0.29558246  0.79793677  0.69469371    -0.13400
F653        F  0.24353078  0.80817446  0.77742391    -0.15700
F654        F  0.29748873  0.85367654  0.68912633    -0.14200
F655        F  0.31936384  0.89006833  0.74138295    -0.14200
F656        F  0.22898337  0.94717947  0.70564717    -0.15600
C657        C  0.20589516  0.23504085  0.59430043     0.14400
C658        C  0.22834552  0.22476238  0.60893264     0.01400
C659        C  0.24957494  0.21171854  0.59436694     0.16400
C660        C  0.24778565  0.20797792  0.56592916     0.25800
C661        C  0.22505363  0.21769898  0.55139584    -0.40600
C662        C  0.20438196  0.23170142  0.56580986     0.32800
C663        C  0.22988038  0.22777636  0.63927965     0.01400
F664        F  0.27126405  0.20107093  0.60797371    -0.12900
F665        F  0.18180266  0.24057724  0.55238766    -0.13400
C666        C  0.20981461  0.21641256  0.65680282     0.16400
C667        C  0.21205095  0.21894429  0.68541611     0.25800
C668        C  0.23440005  0.23286403  0.69688347    -0.40500
C669        C  0.25419951  0.24434833  0.67929007     0.32700
C670        C  0.25189708  0.24194587  0.65088015     0.14400
F671        F  0.18832495  0.20248384  0.64621510    -0.12900
F672        F  0.27573855  0.25832808  0.68974485    -0.13400
F673        F  0.19260135  0.20763273  0.70180038    -0.15700
F674        F  0.27096822  0.25397819  0.63453908    -0.14200
F675        F  0.18508507  0.24767255  0.60772690    -0.14200
F676        F  0.26701183  0.19267722  0.55296294    -0.15600
C677        C  0.15497416  0.27893612  0.70719955     0.14400
C678        C  0.13703034  0.26134061  0.72163094     0.01400
C679        C  0.14779412  0.24445431  0.74218415     0.16400
C680        C  0.17565998  0.24531081  0.74853219     0.25800
C681        C  0.19378060  0.26236890  0.73387381    -0.40600
C682        C  0.18319441  0.27923792  0.71310433     0.32800
C683        C  0.10700613  0.26076082  0.71599832     0.01400
F684        F  0.13127727  0.22664301  0.75580055    -0.12900
F685        F  0.20015350  0.29570949  0.69842721    -0.13400
C686        C  0.09699736  0.25149397  0.69077145     0.16400
C687        C  0.06880642  0.25163697  0.68546657     0.25800
C688        C  0.04990951  0.26130833  0.70516102    -0.40500
C689        C  0.05982337  0.26897015  0.73099947     0.32700
C690        C  0.08809779  0.26872131  0.73632057     0.14400
F691        F  0.11456790  0.24264725  0.67109584    -0.12900
F692        F  0.04238477  0.27868649  0.75035051    -0.13400
F693        F  0.05997970  0.24334464  0.66050816    -0.15700
F694        F  0.09724496  0.27748820  0.76096669    -0.14200
F695        F  0.14514028  0.29597866  0.68759773    -0.14200
F696        F  0.18519083  0.22881740  0.76871005    -0.15600
C697        C  0.28689397  0.15447259  0.71878686     0.14400
C698        C  0.26643742  0.13694026  0.72958410     0.01400
C699        C  0.24434761  0.14876046  0.74373882     0.16400
C700        C  0.24276798  0.17713281  0.74715366     0.25800
C701        C  0.26305922  0.19464221  0.73641840    -0.40600
C702        C  0.28512796  0.18307595  0.72205536     0.32800
C703        C  0.26817999  0.10646413  0.72629706     0.01400
F704        F  0.22444218  0.13279468  0.75485330    -0.12900
F705        F  0.30499603  0.19940081  0.71143378    -0.13400
C706        C  0.29197709  0.09229641  0.73402526     0.16400
C707        C  0.29479020  0.06428535  0.72859836     0.25800
C708        C  0.27356383  0.04945933  0.71625107    -0.40500
C709        C  0.24906759  0.06306084  0.71003006     0.32700
C710        C  0.24641476  0.09133020  0.71488078     0.14400
F711        F  0.31282180  0.10571239  0.74638958    -0.12900
F712        F  0.22846591  0.04943081  0.69748560    -0.13400
F713        F  0.31893518  0.05179728  0.73412379    -0.15700
F714        F  0.22318404  0.10417314  0.70686140    -0.14200
F715        F  0.30844321  0.14391762  0.70475269    -0.14200
F716        F  0.22132067  0.18760583  0.76134688    -0.15600
C717        C  0.39700916  0.43409921  0.97463526     0.14400
C718        C  0.39123484  0.41787684  0.99764728     0.01400
C719        C  0.40654182  0.42136317  0.02161679     0.16400
C720        C  0.42780912  0.44039314  0.02234179     0.25800
C721        C  0.43471151  0.45566970  0.99872194    -0.40600
C722        C  0.41867525  0.45265835  0.97501903     0.32800
C723        C  0.36967282  0.39682607  0.99642204     0.01400
F724        F  0.40178696  0.40532390  0.04389757    -0.12900
F725        F  0.42412596  0.46729129  0.95196990    -0.13400
C726        C  0.37142462  0.37546794  0.97725621     0.16400
C727        C  0.35157241  0.35490679  0.97688564     0.25800
C728        C  0.32988446  0.35533411  0.99580519    -0.40500
C729        C  0.32803232  0.37683736  0.01479133     0.32700
C730        C  0.34773336  0.39750068  0.01500584     0.14400
F731        F  0.39314188  0.37374819  0.95991679    -0.12900
F732        F  0.30723026  0.37770973  0.03326822    -0.13400
F733        F  0.35457427  0.33355670  0.95940001    -0.15700
F734        F  0.34562023  0.41805995  0.03354269    -0.14200
F735        F  0.38170495  0.43178075  0.95165492    -0.14200
F736        F  0.44236351  0.44282108  0.04582782    -0.15600
C737        C  0.27312064  0.29136827  0.84611258     0.14400
C738        C  0.26229260  0.27135231  0.86395346     0.01400
C739        C  0.25021454  0.24795024  0.85257520     0.16400
C740        C  0.24918046  0.24454299  0.82400054     0.25800
C741        C  0.26056571  0.26424825  0.80606941    -0.40600
C742        C  0.27233918  0.28786075  0.81749195     0.32800
C743        C  0.26382389  0.27505311  0.89434285     0.01400
F744        F  0.23878570  0.22872271  0.86917573    -0.12900
F745        F  0.28299421  0.30759194  0.80103741    -0.13400
C746        C  0.24870235  0.29580348  0.90736640     0.16400
C747        C  0.25314808  0.30202130  0.93508822     0.25800
C748        C  0.27250272  0.28734306  0.95047549    -0.40500
C749        C  0.28618254  0.26531460  0.93801812     0.32700
C750        C  0.28185327  0.25918177  0.91022115     0.14400
F751        F  0.23018922  0.31059369  0.89295265    -0.12900
F752        F  0.30531135  0.25109838  0.95220834    -0.13400
F753        F  0.23947515  0.32327381  0.94660979    -0.15700
F754        F  0.29656874  0.23884194  0.89836441    -0.14200
F755        F  0.28466926  0.31431706  0.85653010    -0.14200
F756        F  0.23633441  0.22221710  0.81370401    -0.15600
C757        C  0.01654891  0.64344256  0.38683057     0.14400
C758        C  0.99699148  0.62245210  0.38813129     0.01400
C759        C  0.97768115  0.62001430  0.36711365     0.16400
C760        C  0.97850284  0.63779058  0.34461608     0.25800
C761        C  0.99852913  0.65854147  0.34297722    -0.40600
C762        C  0.01751096  0.66114304  0.36436841     0.32800
C763        C  0.99847312  0.60163477  0.41006482     0.01400
F764        F  0.95854632  0.59988228  0.36803332    -0.12900
F765        F  0.03688717  0.68103450  0.36373143    -0.13400
C766        C  0.97682881  0.59790322  0.42865949     0.16400
C767        C  0.97831558  0.57749552  0.44871995     0.25800
C768        C  0.00151081  0.56043349  0.45057154    -0.40500
C769        C  0.02330648  0.56453658  0.43204527     0.32700
C770        C  0.02167463  0.58485535  0.41193235     0.14400
F771        F  0.95428146  0.61405002  0.42746933    -0.12900
F772        F  0.04580593  0.54830983  0.43262891    -0.13400
F773        F  0.95703296  0.57455622  0.46644062    -0.15700
F774        F  0.04243899  0.58761454  0.39357186    -0.14200
F775        F  0.03479149  0.64672261  0.40741741    -0.14200
F776        F  0.96032979  0.63408677  0.32401131    -0.15600
C777        C  0.73935534  0.75063371  0.15593712     0.14400
C778        C  0.72469143  0.72785572  0.14634981     0.01400
C779        C  0.71333897  0.70963716  0.16590303     0.16400
C780        C  0.71715717  0.71383500  0.19419752     0.25800
C781        C  0.73249230  0.73620079  0.20356396    -0.40600
C782        C  0.74325947  0.75468298  0.18409481     0.32800
C783        C  0.72104962  0.72344046  0.11610283     0.01400
F784        F  0.69880364  0.68752669  0.15761721    -0.12900
F785        F  0.75770864  0.77683921  0.19244622    -0.13400
C786        C  0.74373617  0.72276990  0.09805615     0.16400
C787        C  0.74027128  0.71773706  0.06986330     0.25800
C788        C  0.71411601  0.71285741  0.05914167    -0.40500
C789        C  0.69146164  0.71415673  0.07705936     0.32700
C790        C  0.69482273  0.71973835  0.10500901     0.14400
F791        F  0.76946200  0.72546202  0.10796817    -0.12900
F792        F  0.66593467  0.70899376  0.06755535    -0.13400
F793        F  0.76266014  0.71545425  0.05351314    -0.15700
F794        F  0.67231611  0.72138874  0.12128845    -0.14200
F795        F  0.74938983  0.76942920  0.13799068    -0.14200
F796        F  0.70571793  0.69620271  0.21243741    -0.15600
C797        C  0.84301208  0.71526012  0.29398946     0.14400
C798        C  0.86050119  0.72956778  0.27580470     0.01400
C799        C  0.84883339  0.74775601  0.25690259     0.16400
C800        C  0.82041112  0.75066519  0.25531762     0.25800
C801        C  0.80286627  0.73597707  0.27293961    -0.40600
C802        C  0.81440413  0.71865141  0.29276842     0.32800
C803        C  0.89063559  0.72423468  0.27533205     0.01400
F804        F  0.86493724  0.76194436  0.23915350    -0.12900
F805        F  0.79807105  0.70461139  0.31042128    -0.13400
C806        C  0.90042878  0.69781524  0.26965759     0.16400
C807        C  0.92846373  0.69204879  0.27077422     0.25800
C808        C  0.94754515  0.71261953  0.27722962    -0.40500
C809        C  0.93803456  0.73950727  0.28086782     0.32700
C810        C  0.90981069  0.74529274  0.27998972     0.14400
F811        F  0.88275008  0.67743846  0.26316752    -0.12900
F812        F  0.95589856  0.75985041  0.28687370    -0.13400
F813        F  0.93702477  0.66597910  0.26653068    -0.15700
F814        F  0.90115422  0.77123992  0.28470779    -0.14200
F815        F  0.85372655  0.69778273  0.31272373    -0.14200
F816        F  0.80982056  0.76756213  0.23601565    -0.15600
C817        C  0.59087032  0.02764361  0.41492891     0.14400
C818        C  0.59698998  0.00440031  0.39927741     0.01400
C819        C  0.58145551  0.98050261  0.40283849     0.16400
C820        C  0.56065971  0.97948794  0.42245915     0.25800
C821        C  0.55511502  0.00240372  0.43898814    -0.40600
C822        C  0.57006434  0.02673025  0.43457161     0.32800
C823        C  0.61986548  0.00485810  0.37952362     0.01400
F824        F  0.58629684  0.95817514  0.38707102    -0.12900
F825        F  0.56501850  0.04953815  0.44958266    -0.13400
C826        C  0.64159324  0.98632568  0.38235156     0.16400
C827        C  0.66301123  0.98621905  0.36337429     0.25800
C828        C  0.66309681  0.00478657  0.34127931    -0.40500
C829        C  0.64150631  0.02370753  0.33884044     0.32700
C830        C  0.62001729  0.02360703  0.35772645     0.14400
F831        F  0.64211553  0.96841016  0.40364718    -0.12900
F832        F  0.64059488  0.04170283  0.31763893    -0.13400
F833        F  0.68379759  0.96816314  0.36688042    -0.15700
F834        F  0.59890974  0.04128819  0.35423979    -0.14200
F835        F  0.60548597  0.05106267  0.41161874    -0.14200
F836        F  0.54569084  0.95619718  0.42487715    -0.15600
C837        C  0.73115360  0.91196745  0.25907223     0.14400
C838        C  0.73632081  0.89464129  0.28157668     0.01400
C839        C  0.74038471  0.90644475  0.30742315     0.16400
C840        C  0.73718739  0.93468228  0.31112122     0.25800
C841        C  0.72953397  0.95171037  0.28911492    -0.40600
C842        C  0.72756596  0.94025788  0.26285042     0.32800
C843        C  0.73646905  0.86428894  0.27835907     0.01400
F844        F  0.74672209  0.89049316  0.32928629    -0.12900
F845        F  0.71978778  0.95598613  0.24132161    -0.13400
C846        C  0.75646763  0.85159063  0.26214486     0.16400
C847        C  0.75675799  0.82311325  0.25919084     0.25800
C848        C  0.73709258  0.80655332  0.27237179    -0.40500
C849        C  0.71671397  0.81918343  0.28827629     0.32700
C850        C  0.71653785  0.84785319  0.29141952     0.14400
F851        F  0.77620186  0.86676546  0.24969705    -0.12900
F852        F  0.69711185  0.80382826  0.30068285    -0.13400
F853        F  0.77662894  0.81154886  0.24361501    -0.15700
F854        F  0.69674548  0.85970643  0.30693692    -0.14200
F855        F  0.72783202  0.90126371  0.23370700    -0.14200
F856        F  0.74041970  0.94529294  0.33657024    -0.15600
C857        C  0.64648576  0.24994121  0.24301424     0.14400
C858        C  0.63582738  0.23229368  0.22314373     0.01400
C859        C  0.65419675  0.21650607  0.20724334     0.16400
C860        C  0.68263677  0.21860541  0.21119882     0.25800
C861        C  0.69302219  0.23636966  0.23112944    -0.40600
C862        C  0.67467325  0.25193210  0.24694469     0.32800
C863        C  0.60574280  0.23188021  0.21804286     0.01400
F864        F  0.64457987  0.19909380  0.18792992    -0.12900
F865        F  0.68422530  0.27002624  0.26561245    -0.13400
C866        C  0.59575769  0.23845800  0.19200134     0.16400
C867        C  0.56771655  0.23760217  0.18665480     0.25800
C868        C  0.54864897  0.23040889  0.20729304    -0.40500
C869        C  0.55848311  0.22542530  0.23389460     0.32700
C870        C  0.58680307  0.22598337  0.23916576     0.14400
F871        F  0.61329270  0.24535042  0.17146933    -0.12900
F872        F  0.54099865  0.21816341  0.25430745    -0.13400
F873        F  0.55927067  0.24266331  0.16069507    -0.15700
F874        F  0.59583044  0.21953122  0.26461968    -0.14200
F875        F  0.62959670  0.26627430  0.25783699    -0.14200
F876        F  0.69999886  0.20378979  0.19535078    -0.15600
C877        C  0.70627436  0.28353759  0.15372304     0.14400
C878        C  0.72651167  0.27261092  0.13618472     0.01400
C879        C  0.74964744  0.26033989  0.14775612     0.16400
C880        C  0.75221018  0.25829848  0.17617953     0.25800
C881        C  0.73191342  0.26886624  0.19373901    -0.40600
C882        C  0.70908476  0.28188240  0.18231634     0.32800
C883        C  0.72303420  0.27285498  0.10590536     0.01400
F884        F  0.76931033  0.24935186  0.13146177    -0.12900
F885        F  0.68963457  0.29296633  0.19878111    -0.13400
C886        C  0.74176053  0.28658921  0.08863318     0.16400
C887        C  0.73734072  0.28786837  0.06022450     0.25800
C888        C  0.71423443  0.27535188  0.04872230    -0.40500
C889        C  0.69634830  0.26056858  0.06585858     0.32700
C890        C  0.70075519  0.25921683  0.09410119     0.14400
F891        F  0.76336542  0.30017548  0.09944633    -0.12900
F892        F  0.67354113  0.24883042  0.05534965    -0.13400
F893        F  0.75432600  0.30318238  0.04433122    -0.15700
F894        F  0.68276290  0.24519011  0.11007641    -0.14200
F895        F  0.68385954  0.29591444  0.14312013    -0.14200
F896        F  0.77435830  0.24533758  0.18665058    -0.15600
C897        C  0.71253719  0.15644727  0.27973678     0.14400
C898        C  0.72992548  0.13980965  0.26367947     0.01400
C899        C  0.74937532  0.15249550  0.24660762     0.16400
C900        C  0.75072761  0.18106761  0.24491092     0.25800
C901        C  0.73314591  0.19764226  0.26063701    -0.40600
C902        C  0.71418718  0.18511953  0.27826977     0.32800
C903        C  0.72681531  0.10940727  0.26414728     0.01400
F904        F  0.76634609  0.13728271  0.23069313    -0.12900
F905        F  0.69711550  0.20058160  0.29378081    -0.13400
C906        C  0.70108112  0.09766834  0.25927246     0.16400
C907        C  0.69657114  0.06981613  0.26426053     0.25800
C908        C  0.71804010  0.05272649  0.27300083    -0.40500
C909        C  0.74448893  0.06381374  0.27488792     0.32700
C910        C  0.74879441  0.09203522  0.27091858     0.14400
F911        F  0.67999432  0.11350122  0.25061763    -0.12900
F912        F  0.76566607  0.04783115  0.28292487    -0.13400
F913        F  0.67078268  0.05979013  0.26198714    -0.15700
F914        F  0.77398899  0.10263700  0.27558395    -0.14200
F915        F  0.69391247  0.14484146  0.29689581    -0.14200
F916        F  0.76875395  0.19267073  0.22715550    -0.15600
C917        C  0.21169260  0.65323167  0.22006152     0.14400
C918        C  0.23026901  0.63578240  0.23354057     0.01400
C919        C  0.25154408  0.64747124  0.24867225     0.16400
C920        C  0.25451534  0.67595139  0.24995894     0.25800
C921        C  0.23611993  0.69351199  0.23641960    -0.40600
C922        C  0.21444185  0.68188190  0.22165503     0.32800
C923        C  0.22804177  0.60545104  0.23088642     0.01400
F924        F  0.26980389  0.63124530  0.26181718    -0.12900
F925        F  0.19609331  0.69813732  0.20870723    -0.13400
C926        C  0.23164642  0.59318446  0.20516577     0.16400
C927        C  0.22740417  0.56506822  0.20182340     0.25800
C928        C  0.21927251  0.54859434  0.22405650    -0.40500
C929        C  0.21745408  0.56037896  0.25021386     0.32700
C930        C  0.22189205  0.58865327  0.25363399     0.14400
F931        F  0.23872355  0.60862844  0.18310533    -0.12900
F932        F  0.20942721  0.54495931  0.27197546    -0.13400
F933        F  0.22998906  0.55398975  0.17647487    -0.15700
F934        F  0.21864138  0.59988004  0.27882366    -0.14200
F935        F  0.19072986  0.64239780  0.20556299    -0.14200
F936        F  0.27542371  0.68649882  0.26470798    -0.15600
C937        C  0.25564953  0.73938076  0.14944856     0.14400
C938        C  0.27803406  0.72432059  0.13965993     0.01400
C939        C  0.29559560  0.71176246  0.15889797     0.16400
C940        C  0.29086909  0.71462827  0.18729117     0.25800
C941        C  0.26859361  0.73011866  0.19685074    -0.40600
C942        C  0.25098056  0.74221427  0.17758888     0.32800
C943        C  0.28312887  0.72281243  0.10941252     0.01400
F944        F  0.31717615  0.69658854  0.15022513    -0.12900
F945        F  0.22953145  0.75763303  0.18612549    -0.13400
C946        C  0.30725442  0.73357345  0.09796829     0.16400
C947        C  0.31205488  0.73214806  0.06963171     0.25800
C948        C  0.29268877  0.72031071  0.05185790    -0.40500
C949        C  0.26805940  0.71059024  0.06315489     0.32700
C950        C  0.26337129  0.71170679  0.09163328     0.14400
F951        F  0.32650227  0.74494554  0.11434372    -0.12900
F952        F  0.24961810  0.69781264  0.04693328     0.02800
F953        F  0.33654977  0.74078354  0.05963358    -0.15700
F954        F  0.24019942  0.70041485  0.10207482    -0.14200
F955        F  0.23885063  0.75236996  0.13160403    -0.14200
F956        F  0.30793620  0.70231545  0.20535191    -0.15600
C957        C  0.09559118  0.73356805  0.29603201     0.14400
C958        C  0.10792067  0.72423437  0.27174466     0.01400
C959        C  0.09109093  0.71260061  0.25149039     0.16400
C960        C  0.06276683  0.70907262  0.25617982     0.25800
C961        C  0.05067410  0.71769565  0.28093331    -0.40600
C962        C  0.06737762  0.73047129  0.30049794     0.32800
C963        C  0.13832311  0.72645382  0.26802891     0.01400
F964        F  0.10234808  0.70333925  0.22780743    -0.12900
F965        F  0.05648609  0.73874363  0.32470891    -0.13400
C966        C  0.15636391  0.71213541  0.28540534     0.16400
C967        C  0.18491862  0.71545154  0.28296409     0.25800
C968        C  0.19599404  0.73363066  0.26353544    -0.40500
C969        C  0.17794629  0.74778531  0.24606366     0.32700
C970        C  0.14951055  0.74398736  0.24805888     0.14400
F971        F  0.14624313  0.69479646  0.30469729    -0.12900
F972        F  0.18795638  0.76546191  0.22700092    -0.13400
F973        F  0.20171077  0.70087099  0.29949160    -0.15700
F974        F  0.13279994  0.75807566  0.23097048    -0.14200
F975        F  0.11107990  0.74514824  0.31584901    -0.14200
F976        F  0.04761126  0.69542011  0.23743979    -0.15600
C977        C  0.38895074  0.01241376  0.34264278     0.14400
C978        C  0.38839506  0.99253740  0.36343649     0.01400
C979        C  0.36762319  0.97270014  0.36371683     0.16400
C980        C  0.34718865  0.97321482  0.34396898     0.25800
C981        C  0.34712513  0.99370570  0.32370716    -0.40600
C982        C  0.36840378  0.01311201  0.32298662     0.32800
C983        C  0.40803756  0.99387412  0.38613657     0.01400
F984        F  0.36608034  0.95387848  0.38415423    -0.12900
F985        F  0.36915698  0.03303084  0.30355101    -0.13400
C986        C  0.40935873  0.01745904  0.40240185     0.16400
C987        C  0.42681698  0.01846367  0.42481698     0.25800
C988        C  0.44325405  0.99580582  0.43147714    -0.40500
C989        C  0.44219366  0.97228404  0.41480892     0.32700
C990        C  0.42466747  0.97136494  0.39235819     0.14400
F991        F  0.39303176  0.03928096  0.39710783    -0.12900
F992        F  0.45846579  0.95034444  0.41978750    -0.13400
F993        F  0.42703876  0.04143613  0.44037000    -0.15700
F994        F  0.42412108  0.94860419  0.37648044    -0.14200
F995        F  0.40902165  0.03161130  0.34183656    -0.14200
F996        F  0.32647628  0.95478254  0.34587099    -0.15600
C997        C  0.28009701  0.90715915  0.24538049     0.14400
C998        C  0.26727471  0.89188115  0.26631621     0.01400
C999        C  0.25675614  0.90580679  0.28923175     0.16400
C1000       C  0.26073619  0.93407882  0.29204508     0.25800
C1001       C  0.27531667  0.94896974  0.27208439    -0.40600
C1002       C  0.28430819  0.93541061  0.24837274     0.32800
C1003       C  0.26612147  0.86141336  0.26474394     0.01400
F1004       F  0.24358716  0.89185767  0.30944281    -0.12900
F1005       F  0.29931308  0.94905527  0.22926343    -0.13400
C1006       C  0.27845885  0.84492747  0.28501320     0.16400
C1007       C  0.27792310  0.81621532  0.28300782     0.25800
C1008       C  0.26478464  0.80358531  0.26093807    -0.40500
C1009       C  0.25264047  0.82006499  0.24066274     0.32700
C1010       C  0.25338230  0.84862768  0.24248124     0.14400
F1011       F  0.29133784  0.85667847  0.30654219    -0.12900
F1012       F  0.23945805  0.80835023  0.21928714    -0.13400
F1013       F  0.28973815  0.80069124  0.30275168    -0.15700
F1014       F  0.24102277  0.86385448  0.22280978    -0.14200
F1015       F  0.29035166  0.89436504  0.22293566    -0.14200
F1016       F  0.25211592  0.94661857  0.31529327    -0.15600
C1017       C  0.24483421  0.24676887  0.34892375     0.14400
C1018       C  0.23043973  0.22479016  0.36086067     0.01400
C1019       C  0.21558192  0.20720960  0.34334598     0.16400
C1020       C  0.21579057  0.21116028  0.31475459     0.25800
C1021       C  0.23025574  0.23312354  0.30311267    -0.40600
C1022       C  0.24459738  0.25091648  0.32052461     0.32800
C1023       C  0.23154457  0.21978417  0.39127474     0.01400
F1024       F  0.20069467  0.18621261  0.35389708    -0.12900
F1025       F  0.25952042  0.27179961  0.30979342    -0.13400
C1026       C  0.22588709  0.24079435  0.41036116     0.16400
C1027       C  0.22535654  0.23534221  0.43874975     0.25800
C1028       C  0.22959741  0.20862330  0.44858334    -0.40500
C1029       C  0.23654355  0.18804850  0.42964720     0.32700
C1030       C  0.23802470  0.19363983  0.40151285     0.14400
F1031       F  0.21912400  0.26623623  0.40150650    -0.12900
F1032       F  0.24096919  0.16203824  0.43840732    -0.13400
F1033       F  0.21853415  0.25567011  0.45638707    -0.15700
F1034       F  0.24553530  0.17326040  0.38421186    -0.14200
F1035       F  0.26020151  0.26366049  0.36459851    -0.14200
F1036       F  0.20226441  0.19330348  0.29846281    -0.15600
C1037       C  0.40191133  0.20323448  0.23076966     0.14400
C1038       C  0.38826752  0.22803281  0.22576673     0.01400
C1039       C  0.40379284  0.25104168  0.21790048     0.16400
C1040       C  0.43222261  0.24893540  0.21371735     0.25800
C1041       C  0.44570564  0.22381285  0.21755353    -0.40600
C1042       C  0.43028456  0.20115825  0.22668078     0.32800
C1043       C  0.35788508  0.22990825  0.22859368     0.01400
F1044       F  0.39106514  0.27507065  0.21233870    -0.12900
F1045       F  0.44255211  0.17644301  0.22988538    -0.13400
C1046       C  0.34631735  0.24367464  0.25099221     0.16400
C1047       C  0.31787387  0.24561911  0.25393156     0.25800
C1048       C  0.30017673  0.23380889  0.23460472    -0.40500
C1049       C  0.31166625  0.22024806  0.21193500     0.32700
C1050       C  0.34028631  0.21822024  0.20901076     0.14400
F1051       F  0.36264890  0.25520457  0.27016274    -0.12900
F1052       F  0.29529145  0.20901540  0.19266141    -0.13400
F1053       F  0.30748200  0.25956793  0.27559079    -0.15700
F1054       F  0.35081232  0.20513918  0.18686988    -0.14200
F1055       F  0.38760609  0.18076186  0.23877561    -0.14200
F1056       F  0.44608153  0.27071523  0.20336223    -0.15600
C1057       C  0.24335965  0.34789814  0.24914675     0.14400
C1058       C  0.22212297  0.35934967  0.23377314     0.01400
C1059       C  0.20457622  0.34193620  0.21899212     0.16400
C1060       C  0.20852162  0.31344987  0.21947214     0.25800
C1061       C  0.23005525  0.30217592  0.23468283    -0.40600
C1062       C  0.24728580  0.31964406  0.24959391     0.32800
C1063       C  0.21846099  0.38946903  0.23347851     0.01400
F1064       F  0.18382441  0.35253609  0.20397303    -0.12900
F1065       F  0.26754878  0.30915127  0.26534267    -0.13400
C1066       C  0.23830604  0.40652539  0.22129818     0.16400
C1067       C  0.23424211  0.43490670  0.21991248     0.25800
C1068       C  0.21056402  0.44667500  0.23120165    -0.40500
C1069       C  0.19156335  0.42971620  0.24477105     0.32700
C1070       C  0.19534261  0.40136043  0.24569423     0.14400
F1071       F  0.26078873  0.39548151  0.20925779    -0.12900
F1072       F  0.16855086  0.44057869  0.25593347    -0.13400
F1073       F  0.25215221  0.45055233  0.20543226    -0.15700
F1074       F  0.17606476  0.38543577  0.25791659    -0.14200
F1075       F  0.25987033  0.36411524  0.26438430    -0.14200
F1076       F  0.19126041  0.29694034  0.20544208    -0.15600
C1077       C  0.30255829  0.27989254  0.09854834     0.14400
C1078       C  0.27591946  0.27682455  0.10907973     0.01400
C1079       C  0.25375941  0.27763201  0.09062258     0.16400
C1080       C  0.25814148  0.28229430  0.06253644     0.25800
C1081       C  0.28461932  0.28714309  0.05246104    -0.40600
C1082       C  0.30681085  0.28542403  0.07071535     0.32800
C1083       C  0.27133630  0.27300610  0.13917779     0.01400
F1084       F  0.22766567  0.27544212  0.09993477    -0.12900
F1085       F  0.33275583  0.28975159  0.06166350    -0.13400
C1086       C  0.28379393  0.29046226  0.15854368     0.16400
C1087       C  0.27972794  0.28637129  0.18676478     0.25800
C1088       C  0.26260537  0.26528894  0.19608569    -0.40500
C1089       C  0.24983725  0.24821393  0.17687632     0.32700
C1090       C  0.25455201  0.25165145  0.14882353     0.14400
F1091       F  0.29967099  0.31170990  0.15019334    -0.12900
F1092       F  0.23282553  0.22792789  0.18543673    -0.13400
F1093       F  0.29255956  0.30287266  0.20492689    -0.15700
F1094       F  0.24315746  0.23363551  0.13110909    -0.14200
F1095       F  0.32457179  0.27787820  0.11527824    -0.14200
F1096       F  0.23631736  0.28402159  0.04557453    -0.15600
C1097       C  0.24897325  0.14812773  0.25195579     0.14400
C1098       C  0.26913185  0.13773039  0.26948627     0.01400
C1099       C  0.28492450  0.15621517  0.28499168     0.16400
C1100       C  0.28103255  0.18458303  0.28238687     0.25800
C1101       C  0.26111651  0.19479069  0.26454723    -0.40600
C1102       C  0.24494741  0.17633224  0.24960941     0.32800
C1103       C  0.27479216  0.10781003  0.27002954     0.01400
F1104       F  0.30410509  0.14676236  0.30263309    -0.12900
F1105       F  0.22550777  0.18573500  0.23222405    -0.13400
C1106       C  0.30091881  0.09815628  0.26300695     0.16400
C1107       C  0.30652922  0.07009579  0.26328212     0.25800
C1108       C  0.28615387  0.05103182  0.27069627    -0.40500
C1109       C  0.25971982  0.06053529  0.27665112     0.32700
C1110       C  0.25409359  0.08870563  0.27644201     0.14400
F1111       F  0.32108008  0.11600627  0.25599895    -0.12900
F1112       F  0.23987467  0.04273680  0.28455354    -0.13400
F1113       F  0.33217700  0.06147965  0.25691860    -0.15700
F1114       F  0.22874706  0.09736959  0.28375059    -0.14200
F1115       F  0.23390578  0.13098634  0.23621534    -0.14200
F1116       F  0.29677719  0.20204849  0.29701642    -0.15600
C1117       C  0.01806865  0.39242954  0.34874238     0.14400
C1118       C  0.99726320  0.39316341  0.36858463     0.01400
C1119       C  0.97583247  0.37411041  0.36769194     0.16400
C1120       C  0.97537935  0.35429205  0.34734858     0.25800
C1121       C  0.99646869  0.35320032  0.32773860    -0.40600
C1122       C  0.01783995  0.37239952  0.32857691     0.32800
C1123       C  0.99865901  0.41272416  0.39119443     0.01400
F1124       F  0.95587899  0.37407313  0.38712533    -0.12900
F1125       F  0.03822509  0.37213598  0.30961146    -0.13400
C1126       C  0.97666358  0.43035112  0.39645642     0.16400
C1127       C  0.97708812  0.44731389  0.41926486     0.25800
C1128       C  0.99987759  0.44735897  0.43670547    -0.40500
C1129       C  0.02218397  0.43006641  0.43101714     0.32700
C1130       C  0.02144023  0.41271025  0.40852359     0.14400
F1131       F  0.95480068  0.43114587  0.37944465    -0.12900
F1132       F  0.04431393  0.42919700  0.44769481    -0.13400
F1133       F  0.95533010  0.46388876  0.42406033    -0.15700
F1134       F  0.04255204  0.39517709  0.40419595    -0.14200
F1135       F  0.03850481  0.41123075  0.34883076    -0.14200
F1136       F  0.95487685  0.33554636  0.34748679    -0.15600
C1137       C  0.83787653  0.29641254  0.27866823     0.14400
C1138       C  0.85610908  0.27999594  0.26321000     0.01400
C1139       C  0.84517914  0.25856038  0.24757973     0.16400
C1140       C  0.81705659  0.25335402  0.24768137     0.25800
C1141       C  0.79890822  0.26960471  0.26307278    -0.40600
C1142       C  0.80952868  0.29133839  0.27844341     0.32800
C1143       C  0.88637425  0.28508367  0.26333278     0.01400
F1144       F  0.86169046  0.24298198  0.23154949    -0.12900
F1145       F  0.79250827  0.30763518  0.29315223    -0.13400
C1146       C  0.90517432  0.26375652  0.26870254     0.16400
C1147       C  0.93342930  0.26907456  0.27041407     0.25800
C1148       C  0.94337967  0.29585734  0.26741948    -0.40500
C1149       C  0.92470233  0.31691821  0.26115746     0.32700
C1150       C  0.89671235  0.31151728  0.25859258     0.14400
F1151       F  0.89606506  0.23806336  0.27411398    -0.12900
F1152       F  0.93352153  0.34317210  0.25870322    -0.13400
F1153       F  0.95072369  0.24851964  0.27735273    -0.15700
F1154       F  0.87960958  0.33231787  0.25184465    -0.14200
F1155       F  0.84750437  0.31716497  0.29432027    -0.14200
F1156       F  0.80738717  0.23258923  0.23212717    -0.15600
C1157       C  0.14443132  0.25295968  0.24915191     0.14400
C1158       C  0.13368956  0.27460692  0.26474877     0.01400
C1159       C  0.15207061  0.29091095  0.27994539     0.16400
C1160       C  0.18040481  0.28568763  0.27935045     0.25800
C1161       C  0.19088073  0.26387981  0.26384689    -0.40600
C1162       C  0.17258682  0.24765300  0.24878182     0.32800
C1163       C  0.10355473  0.28056547  0.26441951     0.01400
F1164       F  0.14260115  0.31194074  0.29539417    -0.12900
F1165       F  0.18225347  0.22737012  0.23246814    -0.13400
C1166       C  0.08407720  0.26015861  0.27100154     0.16400
C1167       C  0.05595585  0.26636373  0.27224538     0.25800
C1168       C  0.04675462  0.29308289  0.26708266    -0.40500
C1169       C  0.06606922  0.31309316  0.25928248     0.32700
C1170       C  0.09401054  0.30688527  0.25772225     0.14400
F1171       F  0.09239641  0.23460008  0.27795513    -0.12900
F1172       F  0.05792656  0.33925690  0.25460768    -0.13400
F1173       F  0.03803292  0.24688847  0.28079281    -0.15700
F1174       F  0.11183197  0.32687274  0.25019202    -0.14200
F1175       F  0.12779526  0.23777749  0.23303320    -0.14200
F1176       F  0.19761572  0.30223423  0.29340725    -0.15600
C1177       C  0.34516456  0.77974451  0.79514682     0.14400
C1178       C  0.36471219  0.76842546  0.77696862     0.01400
C1179       C  0.35519437  0.75521489  0.75328519     0.16400
C1180       C  0.32707285  0.75271874  0.74831540     0.25800
C1181       C  0.30765162  0.76327808  0.76686515    -0.40600
C1182       C  0.31694501  0.77706245  0.79018932     0.32800
C1183       C  0.39477050  0.76922247  0.78333289     0.01400
F1184       F  0.37310365  0.74358027  0.73548464    -0.12900
F1185       F  0.29869686  0.78775395  0.80822007    -0.13400
C1186       C  0.40428072  0.75979205  0.80881039     0.16400
C1187       C  0.43205677  0.76159369  0.81559273     0.25800
C1188       C  0.45135959  0.77248797  0.79697216    -0.40500
C1189       C  0.44218451  0.78074065  0.77096520     0.32700
C1190       C  0.41418602  0.77927736  0.76426317     0.14400
F1191       F  0.38652478  0.74916571  0.82747350    -0.12900
F1192       F  0.45998231  0.79196627  0.75271941    -0.13400
F1193       F  0.44000059  0.75341094  0.84092527    -0.15700
F1194       F  0.40588707  0.78908962  0.73964837    -0.14200
F1195       F  0.35340482  0.79353693  0.81772422    -0.14200
F1196       F  0.31870973  0.73900730  0.72571401    -0.15600
C1197       C  0.65950667  0.79269143  0.79160437     0.14400
C1198       C  0.64257043  0.77264996  0.77945579     0.01400
C1199       C  0.65511188  0.75150845  0.76457945     0.16400
C1200       C  0.68357025  0.75037890  0.76180767     0.25800
C1201       C  0.70052283  0.77021088  0.77384689    -0.40600
C1202       C  0.68825467  0.79149510  0.78878981     0.32800
C1203       C  0.61196257  0.77359864  0.78223615     0.01400
F1204       F  0.63975064  0.73203889  0.75222961    -0.12900
F1205       F  0.70401798  0.81080257  0.80089769    -0.13400
C1206       C  0.59714428  0.79658210  0.77319900     0.16400
C1207       C  0.56877950  0.79842436  0.77766381     0.25800
C1208       C  0.55437945  0.77712516  0.79078671    -0.40500
C1209       C  0.56880073  0.75335906  0.79816709     0.32700
C1210       C  0.59727201  0.75157759  0.79398094     0.14400
F1211       F  0.61023370  0.81755458  0.76042171    -0.12900
F1212       F  0.55552382  0.73253950  0.81102756    -0.13400
F1213       F  0.55555582  0.82172454  0.77039494    -0.15700
F1214       F  0.61068419  0.72889901  0.80277291    -0.14200
F1215       F  0.64823648  0.81298430  0.80683929    -0.14200
F1216       F  0.69471894  0.72978211  0.74698017    -0.15600
C1217       C  0.52507394  0.90936247  0.91570684     0.14400
C1218       C  0.50882259  0.88700393  0.92381773     0.01400
C1219       C  0.49344071  0.88869854  0.94812858     0.16400
C1220       C  0.49379706  0.91269278  0.96369797     0.25800
C1221       C  0.50974633  0.93518008  0.95530862    -0.40600
C1222       C  0.52566813  0.93320625  0.93140243     0.32800
C1223       C  0.50698105  0.86272420  0.90588540     0.01400
F1224       F  0.47808772  0.86714195  0.95671867    -0.12900
F1225       F  0.54074840  0.95482845  0.92250718    -0.13400
C1226       C  0.53072810  0.84850756  0.89820253     0.16400
C1227       C  0.52968969  0.82829834  0.87808792     0.25800
C1228       C  0.50477476  0.82186203  0.86518822    -0.40500
C1229       C  0.48062582  0.83471977  0.87454575     0.32700
C1230       C  0.48179989  0.85508754  0.89452956     0.14400
F1231       F  0.55511007  0.85451041  0.90991392    -0.12900
F1232       F  0.45589700  0.82858047  0.86364158    -0.13400
F1233       F  0.55323538  0.81530429  0.87114051    -0.15700
F1234       F  0.45846062  0.86836298  0.90169426    -0.14200
F1235       F  0.53953191  0.90846572  0.89192449    -0.14200
F1236       F  0.47878935  0.91392556  0.98713241    -0.15600
C1237       C  0.23556649  0.40219676  0.80032704     0.14400
C1238       C  0.22909129  0.39085177  0.77472074     0.01400
C1239       C  0.22101297  0.40865411  0.75342548     0.16400
C1240       C  0.21810511  0.43693999  0.75812429     0.25800
C1241       C  0.22314783  0.44785261  0.78421054    -0.40600
C1242       C  0.23238741  0.43025797  0.80504775     0.32800
C1243       C  0.22967834  0.36046357  0.77077531     0.01400
F1244       F  0.21435150  0.39844126  0.72852838    -0.12900
F1245       F  0.23731780  0.44020603  0.83049625    -0.13400
C1246       C  0.21386658  0.34305363  0.78771620     0.16400
C1247       C  0.21491508  0.31445327  0.78463134     0.25800
C1248       C  0.23177578  0.30271227  0.76456660    -0.40500
C1249       C  0.24698093  0.32006916  0.74713584     0.32700
C1250       C  0.24614139  0.34858980  0.75032918     0.14400
F1251       F  0.19720221  0.35381599  0.80718334    -0.12900
F1252       F  0.26337081  0.30918805  0.72745671    -0.13400
F1253       F  0.19958618  0.29824899  0.80126684    -0.15700
F1254       F  0.26226998  0.36454555  0.73415848    -0.14200
F1255       F  0.24446670  0.38599343  0.82106162    -0.14200
F1256       F  0.20829500  0.45323557  0.73787810    -0.15600
C1257       C  0.20307566  0.59407564  0.75768191     0.14400
C1258       C  0.22743935  0.60673142  0.76608943     0.01400
C1259       C  0.24869681  0.59023433  0.77638164     0.16400
C1260       C  0.24477812  0.56200876  0.78025841     0.25800
C1261       C  0.21960762  0.54984609  0.77379456    -0.40600
C1262       C  0.19924069  0.56590875  0.76152053     0.32800
C1263       C  0.23041888  0.63708686  0.76489506     0.01400
F1264       F  0.27262001  0.60174847  0.78434511    -0.12900
F1265       F  0.17497482  0.55441538  0.75462490    -0.13400
C1266       C  0.21256772  0.65435650  0.77972139     0.16400
C1267       C  0.21579571  0.68295514  0.77882920     0.25800
C1268       C  0.23720418  0.69457554  0.76354601    -0.40500
C1269       C  0.25508474  0.67734992  0.74898376     0.32700
C1270       C  0.25163348  0.64896396  0.74946939     0.14400
F1271       F  0.19253514  0.64346599  0.79569252    -0.12900
F1272       F  0.27591132  0.68823570  0.73402883    -0.13400
F1273       F  0.19837808  0.69921806  0.79310597    -0.15700
F1274       F  0.26887526  0.63304856  0.73458455    -0.14200
F1275       F  0.18269913  0.60911840  0.74639475    -0.14200
F1276       F  0.26473780  0.54700211  0.79233004    -0.15600
C1277       C  0.10946839  0.48869384  0.93306865     0.14400
C1278       C  0.10834070  0.50659818  0.91057703     0.01400
C1279       C  0.08554247  0.52374435  0.90727070     0.16400
C1280       C  0.06390545  0.52261063  0.92600131     0.25800
C1281       C  0.06464956  0.50397026  0.94795190    -0.40600
C1282       C  0.08759441  0.48711173  0.95143400     0.32800
C1283       C  0.12961771  0.50540001  0.88916443     0.01400
F1284       F  0.08364438  0.54056221  0.88518169    -0.12900
F1285       F  0.08894501  0.46936297  0.97281871    -0.13400
C1286       C  0.13352642  0.48100447  0.87465360     0.16400
C1287       C  0.15218606  0.47986043  0.85308071     0.25800
C1288       C  0.16723925  0.50326211  0.84536382    -0.40500
C1289       C  0.16358755  0.52768082  0.86032026     0.32700
C1290       C  0.14499267  0.52863793  0.88215564     0.14400
F1291       F  0.11829268  0.45850719  0.88059355    -0.12900
F1292       F  0.17801007  0.55060019  0.85401505    -0.13400
F1293       F  0.15447167  0.45603535  0.83902771    -0.15700
F1294       F  0.14197543  0.55222360  0.89648819    -0.14200
F1295       F  0.13173799  0.47262976  0.93706792    -0.14200
F1296       F  0.04163704  0.53867866  0.92190876    -0.15600
C1297       C  0.59834812  0.19624127  0.75946183     0.14400
C1298       C  0.60934760  0.22026473  0.77066685     0.01400
C1299       C  0.59135105  0.23950483  0.78244150     0.16400
C1300       C  0.56298967  0.23453954  0.78349798     0.25800
C1301       C  0.55205287  0.21022957  0.77276921    -0.40600
C1302       C  0.57011232  0.19120514  0.76070223     0.32800
C1303       C  0.63939279  0.22572986  0.76911769     0.01400
F1304       F  0.60142107  0.26260538  0.79400641    -0.12900
F1305       F  0.56036531  0.16714927  0.75088148    -0.13400
C1306       C  0.64911101  0.24747884  0.75295417     0.16400
C1307       C  0.67717967  0.25253634  0.75053757     0.25800
C1308       C  0.69631596  0.23594165  0.76416472    -0.40500
C1309       C  0.68679789  0.21417447  0.78047328     0.32700
C1310       C  0.65852340  0.20906497  0.78291353     0.14400
F1311       F  0.63137600  0.26312181  0.73844839    -0.12900
F1312       F  0.70481357  0.19785555  0.79383368    -0.13400
F1313       F  0.68582114  0.27311827  0.73388218    -0.15700
F1314       F  0.64982487  0.18797723  0.79886040    -0.14200
F1315       F  0.61500713  0.17750028  0.74748190    -0.14200
F1316       F  0.54651602  0.25260879  0.79664320    -0.15600
C1317       C  0.40430818  0.20614792  0.74817338     0.14400
C1318       C  0.39137628  0.22560385  0.76509104     0.01400
C1319       C  0.40788945  0.24133049  0.78265364     0.16400
C1320       C  0.43618278  0.23635808  0.78475710     0.25800
C1321       C  0.44879154  0.21581485  0.76906097    -0.40600
C1322       C  0.43263699  0.20127271  0.75021131     0.32800
C1323       C  0.36071590  0.22871863  0.76548177     0.01400
F1324       F  0.39627148  0.26025761  0.79929232    -0.12900
F1325       F  0.44412031  0.18115293  0.73485755    -0.13400
C1326       C  0.34354081  0.20695809  0.77375598     0.16400
C1327       C  0.31487491  0.21020008  0.77503676     0.25800
C1328       C  0.30248312  0.23503630  0.76716141    -0.40500
C1329       C  0.31981637  0.25691552  0.75941988     0.32700
C1330       C  0.34842599  0.25380227  0.75861969     0.14400
F1331       F  0.35456503  0.18249828  0.78087505    -0.12900
F1332       F  0.30897028  0.28128625  0.75172662    -0.13400
F1333       F  0.29930947  0.18898250  0.78399679    -0.15700
F1334       F  0.36416897  0.27514534  0.75022176    -0.14200
F1335       F  0.38936096  0.19133501  0.73015637    -0.14200
F1336       F  0.45082634  0.25008922  0.80382715    -0.15600
C1337       C  0.47449420  0.12115338  0.85969439     0.14400
C1338       C  0.49653670  0.10279982  0.86065735     0.01400
C1339       C  0.51716015  0.10429202  0.84066343     0.16400
C1340       C  0.51646306  0.12466157  0.82065168     0.25800
C1341       C  0.49518492  0.14404403  0.82047390    -0.40600
C1342       C  0.47379782  0.14167833  0.83975599     0.32800
C1343       C  0.49932565  0.08370583  0.88385912     0.01400
F1344       F  0.53826490  0.08625827  0.84087460    -0.12900
F1345       F  0.45314119  0.16022119  0.84051661    -0.13400
C1346       C  0.47977021  0.06324716  0.88865293     0.16400
C1347       C  0.48193804  0.04620458  0.91159983     0.25800
C1348       C  0.50380552  0.04938447  0.93002226    -0.40500
C1349       C  0.52401377  0.06918681  0.92437391     0.32700
C1350       C  0.52153252  0.08644635  0.90170109     0.14400
F1351       F  0.45875684  0.05968532  0.87094593    -0.12900
F1352       F  0.54566875  0.07258305  0.94131372    -0.13400
F1353       F  0.46298418  0.02624505  0.91546413    -0.15700
F1354       F  0.54028115  0.10659286  0.89763266    -0.14200
F1355       F  0.45450383  0.12022824  0.87906498    -0.14200
F1356       F  0.53677801  0.12557349  0.80161272    -0.15600
C1357       C  0.75179788  0.65485966  0.76100275     0.14400
C1358       C  0.76928895  0.64273464  0.78018744     0.01400
C1359       C  0.78605185  0.65982938  0.79626446     0.16400
C1360       C  0.78517477  0.68851718  0.79314995     0.25800
C1361       C  0.76780733  0.70048556  0.77368689    -0.40600
C1362       C  0.75137097  0.68327246  0.75752406     0.32800
C1363       C  0.77021197  0.61229782  0.78298542     0.01400
F1364       F  0.80348518  0.64869296  0.81473488    -0.12900
F1365       F  0.73431233  0.69408444  0.73858719    -0.13400
C1366       C  0.77866614  0.59581375  0.76085782     0.16400
C1367       C  0.78151225  0.56733936  0.76403116     0.25800
C1368       C  0.77584076  0.55478332  0.78935484    -0.40500
C1369       C  0.76635305  0.57120173  0.81111237     0.32700
C1370       C  0.76330546  0.59955067  0.80790114     0.14400
F1371       F  0.78593051  0.60753438  0.73666721    -0.12900
F1372       F  0.76164807  0.55995133  0.83614076    -0.13400
F1373       F  0.79220041  0.55245889  0.74314492    -0.15700
F1374       F  0.75442862  0.61464611  0.82948096    -0.14200
F1375       F  0.73451845  0.63917400  0.74605572    -0.14200
F1376       F  0.80110932  0.70455435  0.80912945    -0.15600
C1377       C  0.75454928  0.41350216  0.77247368     0.14400
C1378       C  0.77671527  0.39566418  0.76725105     0.01400
C1379       C  0.80291166  0.40711264  0.76422517     0.16400
C1380       C  0.80716793  0.43521547  0.76804594     0.25800
C1381       C  0.78541762  0.45274772  0.77526675    -0.40600
C1382       C  0.75887860  0.44177785  0.77652825     0.32800
C1383       C  0.77270032  0.36522231  0.76521849     0.01400
F1384       F  0.82462451  0.39093342  0.75813507    -0.12900
F1385       F  0.73753765  0.45795176  0.78389233    -0.13400
C1386       C  0.75496746  0.35426836  0.74551846     0.16400
C1387       C  0.75083548  0.32590523  0.74366045     0.25800
C1388       C  0.76456139  0.30762214  0.76117460    -0.40500
C1389       C  0.78252214  0.31833482  0.78077664     0.32700
C1390       C  0.78652625  0.34686846  0.78284301     0.14400
F1391       F  0.74192331  0.37109232  0.72770097    -0.12900
F1392       F  0.79604270  0.30121014  0.79793102    -0.13400
F1393       F  0.73314954  0.31612897  0.72471050    -0.15700
F1394       F  0.80351987  0.35659663  0.80243300    -0.14200
F1395       F  0.72890008  0.40327479  0.77529411    -0.14200
F1396       F  0.83303128  0.44519436  0.76612278    -0.15600
C1397       C  0.87022686  0.47657952  0.87292628     0.14400
C1398       C  0.88576193  0.50029499  0.87761819     0.01400
C1399       C  0.87963587  0.52439100  0.86317982     0.16400
C1400       C  0.85777779  0.52510295  0.84504564     0.25800
C1401       C  0.84209870  0.50143665  0.84036594    -0.40600
C1402       C  0.84872335  0.47706260  0.85427732     0.32800
C1403       C  0.90744312  0.50038775  0.89852590     0.01400
F1404       F  0.89493917  0.54730906  0.86658365    -0.12900
F1405       F  0.83374370  0.45394788  0.85072061    -0.13400
C1406       C  0.92822358  0.48054970  0.89816553     0.16400
C1407       C  0.94800733  0.48015766  0.91868426     0.25800
C1408       C  0.94781075  0.50015806  0.93933858    -0.40500
C1409       C  0.92733181  0.52033174  0.93930494     0.32700
C1410       C  0.90709004  0.52016736  0.91935901     0.14400
F1411       F  0.92941858  0.46163419  0.87787764    -0.12900
F1412       F  0.92623727  0.53965425  0.95920370    -0.13400
F1413       F  0.96754101  0.46044758  0.91813122    -0.15700
F1414       F  0.88663749  0.53889729  0.92090771    -0.14200
F1415       F  0.87512721  0.45322233  0.88721006    -0.14200
F1416       F  0.85228279  0.54893681  0.83181765    -0.15600
C1417       C  0.77393117  0.41325149  0.24216421     0.14400
C1418       C  0.76351863  0.39513709  0.22244543     0.01400
C1419       C  0.75426801  0.40571287  0.19739302     0.16400
C1420       C  0.75670283  0.43368849  0.19156374     0.25800
C1421       C  0.76827919  0.45172273  0.21077117    -0.40600
C1422       C  0.77641591  0.44131412  0.23630200     0.32800
C1423       C  0.76313319  0.36510433  0.22737739     0.01400
F1424       F  0.74378713  0.38871302  0.17815550    -0.12900
F1425       F  0.78930056  0.45782075  0.25442885    -0.13400
C1426       C  0.74524522  0.35378766  0.24687373     0.16400
C1427       C  0.74341583  0.32536812  0.25009412     0.25800
C1428       C  0.75949447  0.30773364  0.23392107    -0.40500
C1429       C  0.77812102  0.31900095  0.21509260     0.32700
C1430       C  0.77992466  0.34752633  0.21183929     0.14400
F1431       F  0.72904168  0.37029234  0.26227900    -0.12900
F1432       F  0.79439762  0.30243055  0.19987649    -0.13400
F1433       F  0.72568128  0.31493684  0.26889203    -0.15700
F1434       F  0.79808720  0.35810449  0.19357052    -0.14200
F1435       F  0.78347997  0.40347375  0.26632407    -0.14200
F1436       F  0.74927206  0.44293904  0.16643137    -0.15600
C1437       C  0.78542976  0.66015181  0.21462817     0.14400
C1438       C  0.77426480  0.64073958  0.23308214     0.01400
C1439       C  0.75965238  0.65030788  0.25593117     0.16400
C1440       C  0.75542267  0.67834467  0.25984760     0.25800
C1441       C  0.76569301  0.69776279  0.24106093    -0.40600
C1442       C  0.78106071  0.68843631  0.21854150     0.32800
C1443       C  0.77718219  0.61055158  0.22856587     0.01400
F1444       F  0.74968521  0.63239484  0.27478920    -0.12900
F1445       F  0.79195293  0.70665671  0.20052970    -0.13400
C1446       C  0.80310843  0.59825485  0.22718442     0.16400
C1447       C  0.80567053  0.57011780  0.22230312     0.25800
C1448       C  0.78245451  0.55353714  0.21815706    -0.40500
C1449       C  0.75643749  0.56544713  0.22101842     0.32700
C1450       C  0.75385982  0.59368943  0.22615986     0.14400
F1451       F  0.82606488  0.61350430  0.23033764    -0.12900
F1452       F  0.73356355  0.55024815  0.21712149    -0.13400
F1453       F  0.83109974  0.55904616  0.22075404    -0.15700
F1454       F  0.72850545  0.60488999  0.22743520    -0.14200
F1455       F  0.80019890  0.65172457  0.19261287    -0.14200
F1456       F  0.74100878  0.68655747  0.28214789    -0.15600
C1457       C  0.87012222  0.47543585  0.13046824     0.14400
C1458       C  0.87415803  0.49730675  0.11222029     0.01400
C1459       C  0.85689201  0.52021661  0.11343401     0.16400
C1460       C  0.83583837  0.52129217  0.13270175     0.25800
C1461       C  0.83154554  0.49929328  0.15081355    -0.40600
C1462       C  0.84887138  0.47633824  0.14954578     0.32800
C1463       C  0.89686311  0.49664210  0.09242024     0.01400
F1464       F  0.86037100  0.54151671  0.09583712    -0.12900
F1465       F  0.84594800  0.45521775  0.16745034    -0.13400
C1466       C  0.89906423  0.47523610  0.07341437     0.16400
C1467       C  0.92076051  0.47473294  0.05472276     0.25800
C1468       C  0.94021931  0.49591365  0.05460317    -0.40500
C1469       C  0.93793923  0.51724267  0.07379734     0.32700
C1470       C  0.91652943  0.51749217  0.09261573     0.14400
F1471       F  0.87986834  0.45517774  0.07264334    -0.12900
F1472       F  0.95677882  0.53763724  0.07477876    -0.13400
F1473       F  0.92224967  0.45404576  0.03628932    -0.15700
F1474       F  0.91526197  0.53786897  0.11143083    -0.14200
F1475       F  0.88724563  0.45356114  0.13033303    -0.14200
F1476       F  0.81948073  0.54371294  0.13340192    -0.15600
C1477       C  0.59919210  0.80899211  0.24434284     0.14400
C1478       C  0.60928609  0.78311611  0.23734470     0.01400
C1479       C  0.59069818  0.76273182  0.22902803     0.16400
C1480       C  0.56261924  0.76863488  0.22656771     0.25800
C1481       C  0.55277239  0.79507299  0.23212992    -0.40600
C1482       C  0.57134626  0.81494891  0.24170227     0.32800
C1483       C  0.63925710  0.77782933  0.23857566     0.01400
F1484       F  0.59997325  0.73766227  0.22157651    -0.12900
F1485       F  0.56265885  0.84073285  0.24726215    -0.13400
C1486       C  0.64976290  0.75958967  0.25807482     0.16400
C1487       C  0.67795484  0.75512402  0.25988310     0.25800
C1488       C  0.69635217  0.76916330  0.24258150    -0.40500
C1489       C  0.68600879  0.78778533  0.22331051     0.32700
C1490       C  0.65762468  0.79199248  0.22122313     0.14400
F1491       F  0.63271733  0.74663922  0.27589476    -0.12900
F1492       F  0.70331380  0.80189242  0.20669139    -0.13400
F1493       F  0.68746110  0.73717165  0.27884592    -0.15700
F1494       F  0.64797945  0.80973447  0.20214305    -0.14200
F1495       F  0.61657255  0.82878229  0.25304430    -0.14200
F1496       F  0.54554743  0.74924507  0.21655580    -0.15600
C1497       C  0.40207387  0.80728870  0.23539284     0.14400
C1498       C  0.39305341  0.78045959  0.23045890     0.01400
C1499       C  0.41296956  0.76020686  0.22483381     0.16400
C1500       C  0.44099743  0.76713960  0.22269499     0.25800
C1501       C  0.44957999  0.79445014  0.22583774    -0.40600
C1502       C  0.42978215  0.81421236  0.23285304     0.32800
C1503       C  0.36291923  0.77417135  0.23098452     0.01400
F1504       F  0.40517067  0.73400667  0.21998394    -0.12900
F1505       F  0.43728210  0.84065370  0.23674683    -0.13400
C1506       C  0.34422185  0.78993944  0.21552511     0.16400
C1507       C  0.31584502  0.78524350  0.21737111     0.25800
C1508       C  0.30550115  0.76433709  0.23431505    -0.40500
C1509       C  0.32414961  0.74837172  0.24936900     0.32700
C1510       C  0.35239647  0.75329873  0.24789220     0.14400
F1511       F  0.35344779  0.80994229  0.19848994    -0.12900
F1512       F  0.31485594  0.72822169  0.26616177    -0.13400
F1513       F  0.29858330  0.80122350  0.20270103    -0.15700
F1514       F  0.36937158  0.73828376  0.26388713    -0.14200
F1515       F  0.38387381  0.82702910  0.24250311    -0.14200
F1516       F  0.45942703  0.74757822  0.21573470    -0.15600
C1517       C  0.53058279  0.91919202  0.09067856     0.14400
C1518       C  0.51190685  0.92277106  0.11227510     0.01400
C1519       C  0.49366444  0.94494037  0.11168677     0.16400
C1520       C  0.49329492  0.96265587  0.08918344     0.25800
C1521       C  0.51141466  0.95857611  0.06714596    -0.40600
C1522       C  0.53038291  0.93700968  0.06826182     0.32800
C1523       C  0.50964830  0.90185225  0.13398171     0.01400
F1524       F  0.47598048  0.94914232  0.13277339    -0.12900
F1525       F  0.54758111  0.93221792  0.04689038    -0.13400
C1526       C  0.53119185  0.89717458  0.15223247     0.16400
C1527       C  0.52907052  0.87651993  0.17203576     0.25800
C1528       C  0.50557101  0.85965590  0.17333516    -0.40500
C1529       C  0.48424270  0.86437842  0.15467688     0.32700
C1530       C  0.48616777  0.88544579  0.13545814     0.14400
F1531       F  0.55428165  0.91258025  0.15080823    -0.12900
F1532       F  0.46199525  0.84780515  0.15402916    -0.13400
F1533       F  0.55000805  0.87321274  0.18990203    -0.15700
F1534       F  0.46550385  0.88906293  0.11736837    -0.14200
F1535       F  0.54801427  0.89758565  0.09068227    -0.14200
F1536       F  0.47527810  0.98378112  0.08892509    -0.15600
C1537       C  0.78146666  0.79101378  0.35172954     0.14400
C1538       C  0.76766989  0.77316493  0.36981689     0.01400
C1539       C  0.75254569  0.75140816  0.35895600     0.16400
C1540       C  0.75053953  0.74797274  0.33059207     0.25800
C1541       C  0.76391672  0.76604865  0.31237257    -0.40600
C1542       C  0.77960334  0.78748238  0.32322019     0.32800
C1543       C  0.76963934  0.77659206  0.40002938     0.01400
F1544       F  0.73953503  0.73354950  0.37593095    -0.12900
F1545       F  0.79335297  0.80474685  0.30628871    -0.13400
C1546       C  0.75874941  0.79983197  0.41299600     0.16400
C1547       C  0.76225477  0.80371886  0.44124596     0.25800
C1548       C  0.77628699  0.78420716  0.45710909    -0.40500
C1549       C  0.78610121  0.76043187  0.44429222     0.32700
C1550       C  0.78287633  0.75669952  0.41601654     0.14400
F1551       F  0.74536219  0.81909100  0.39813899    -0.12900
F1552       F  0.80099296  0.74199343  0.45871415    -0.13400
F1553       F  0.75307021  0.82716466  0.45292946    -0.15700
F1554       F  0.79424000  0.73447339  0.40387260    -0.14200
F1555       F  0.79733754  0.81140831  0.36173971    -0.14200
F1556       F  0.73525136  0.72698626  0.32091331    -0.15600
C1557       C  0.75400213  0.75304271  0.65857552     0.14400
C1558       C  0.77511766  0.76810051  0.64606122     0.01400
C1559       C  0.79287134  0.78348341  0.66283298     0.16400
C1560       C  0.78979837  0.78331610  0.69147674     0.25800
C1561       C  0.76866623  0.76815521  0.70377040    -0.40600
C1562       C  0.75071311  0.75326342  0.68701525     0.32800
C1563       C  0.77879830  0.76749841  0.61567505     0.01400
F1564       F  0.81306068  0.79888943  0.65144157    -0.12900
F1565       F  0.73019809  0.73829352  0.69837018    -0.13400
C1566       C  0.75678554  0.77293134  0.59784962     0.16400
C1567       C  0.76104055  0.77467860  0.56943217     0.25800
C1568       C  0.78742259  0.77172060  0.55842577    -0.40500
C1569       C  0.80892352  0.76420691  0.57599407     0.32700
C1570       C  0.80462841  0.76193449  0.60423698     0.14400
F1571       F  0.73151251  0.77845375  0.60800452    -0.12900
F1572       F  0.83457910  0.76054801  0.56588619    -0.13400
F1573       F  0.73989090  0.78178911  0.55301234    -0.15700
F1574       F  0.82598117  0.75502917  0.62051912    -0.14200
F1575       F  0.73700446  0.73734317  0.64332993    -0.14200
F1576       F  0.80740802  0.79787659  0.70711479    -0.15600
C1577       C  0.85817707  0.88316652  0.49527518     0.14400
C1578       C  0.88111638  0.87983169  0.51198089     0.01400
C1579       C  0.88438905  0.85582786  0.52731262     0.16400
C1580       C  0.86487153  0.83506335  0.52572130     0.25800
C1581       C  0.84171528  0.83832283  0.50892751    -0.40600
C1582       C  0.83855866  0.86256372  0.49373701     0.32800
C1583       C  0.90239271  0.90087777  0.51197704     0.01400
F1584       F  0.90675588  0.85235456  0.54331649    -0.12900
F1585       F  0.81610652  0.86668636  0.47805127    -0.13400
C1586       C  0.90486019  0.91895262  0.53401187     0.16400
C1587       C  0.92447536  0.93971986  0.53314960     0.25800
C1588       C  0.94215250  0.94220757  0.51037682    -0.40500
C1589       C  0.93951185  0.92384453  0.48839801     0.32700
C1590       C  0.91970263  0.90339571  0.48922457     0.14400
F1591       F  0.88795585  0.91670043  0.55604719    -0.12900
F1592       F  0.95654979  0.92514709  0.46641298    -0.13400
F1593       F  0.92571532  0.95773504  0.55422662    -0.15700
F1594       F  0.91752701  0.88574259  0.46793084    -0.14200
F1595       F  0.85476303  0.90656335  0.48064300    -0.14200
F1596       F  0.86903278  0.81154112  0.53997366    -0.15600
C1597       C  0.77391766  0.24591635  0.58721958     0.14400
C1598       C  0.76797922  0.22407468  0.60512519     0.01400
C1599       C  0.76311641  0.19803051  0.59417459     0.16400
C1600       C  0.76567105  0.19355355  0.56598397     0.25800
C1601       C  0.77282450  0.21509869  0.54808649    -0.40600
C1602       C  0.77625835  0.24147652  0.55885764     0.32800
C1603       C  0.76664945  0.22849985  0.63519647     0.01400
F1604       F  0.75683743  0.17668883  0.61090363    -0.12900
F1605       F  0.78399589  0.26239738  0.54220455    -0.13400
C1606       C  0.74328584  0.24030966  0.64687872     0.16400
C1607       C  0.74183825  0.24488821  0.67509500     0.25800
C1608       C  0.76344692  0.23709709  0.69245879    -0.40500
C1609       C  0.78690255  0.22516252  0.68080809     0.32700
C1610       C  0.78852636  0.22099816  0.65232558     0.14400
F1611       F  0.72167000  0.24712047  0.63091917    -0.12900
F1612       F  0.80801464  0.21732016  0.69693317    -0.13400
F1613       F  0.71915925  0.25705457  0.68557032    -0.15700
F1614       F  0.81144611  0.20971580  0.64140929    -0.14200
F1615       F  0.77864631  0.27126031  0.59743127    -0.14200
F1616       F  0.76302567  0.16767142  0.55627933    -0.15600
C1617       C  0.75019060  0.21781342  0.40681707     0.14400
C1618       C  0.77060149  0.22799262  0.38896602     0.01400
C1619       C  0.79567790  0.23637098  0.40015143     0.16400
C1620       C  0.80104749  0.23273796  0.42803844     0.25800
C1621       C  0.78118216  0.22153178  0.44568617    -0.40600
C1622       C  0.75535461  0.21490895  0.43501041     0.32800
C1623       C  0.76623088  0.22959916  0.35872437     0.01400
F1624       F  0.81530036  0.24762810  0.38390305    -0.12900
F1625       F  0.73581938  0.20379735  0.45145094    -0.13400
C1626       C  0.74348114  0.24345593  0.34800908     0.16400
C1627       C  0.74042582  0.24650827  0.31968935     0.25800
C1628       C  0.76018477  0.23609783  0.30138710    -0.40500
C1629       C  0.78261307  0.22178353  0.31189273     0.32700
C1630       C  0.78548505  0.21829196  0.34028479     0.14400
F1631       F  0.72479827  0.25516980  0.36495813    -0.12900
F1632       F  0.80180721  0.21139824  0.29469927    -0.13400
F1633       F  0.71850440  0.26054303  0.31013728    -0.15700
F1634       F  0.80713748  0.20382105  0.34979319    -0.14200
F1635       F  0.72583454  0.20920107  0.39676100    -0.14200
F1636       F  0.82616646  0.23929787  0.43773117    -0.15600
C1637       C  0.91855264  0.09673037  0.52908304     0.14400
C1638       C  0.90390045  0.10156545  0.50489694     0.01400
C1639       C  0.90850602  0.08489210  0.48204437     0.16400
C1640       C  0.92794158  0.06405773  0.48305264     0.25800
C1641       C  0.94267581  0.05893704  0.50731144    -0.40600
C1642       C  0.93746718  0.07535186  0.53046061     0.32800
C1643       C  0.88292435  0.12320866  0.50371472     0.01400
F1644       F  0.89357882  0.08834513  0.45890984    -0.12900
F1645       F  0.95083455  0.07105259  0.55437867    -0.13400
C1646       C  0.88393475  0.14347099  0.48323616     0.16400
C1647       C  0.86321184  0.16308350  0.48136735     0.25800
C1648       C  0.84118152  0.16261775  0.49996071    -0.40500
C1649       C  0.84045642  0.14240167  0.52060938     0.32700
C1650       C  0.86116795  0.12299971  0.52248837     0.14400
F1651       F  0.90528177  0.14447703  0.46538649    -0.12900
F1652       F  0.81920629  0.14072464  0.53853337    -0.13400
F1653       F  0.86509793  0.18292212  0.46192817    -0.15700
F1654       F  0.85951207  0.10343781  0.54222710    -0.14200
F1655       F  0.91467734  0.11290402  0.55133292    -0.14200
F1656       F  0.93186291  0.04861049  0.46031563    -0.15600
C1657       C  0.21681415  0.78851176  0.65769596     0.14400
C1658       C  0.23326777  0.77396353  0.63870286     0.01400
C1659       C  0.25163775  0.75437704  0.64900458     0.16400
C1660       C  0.25407765  0.75001160  0.67729608     0.25800
C1661       C  0.23845323  0.76518394  0.69614377    -0.40600
C1662       C  0.21953957  0.78428421  0.68614223     0.32800
C1663       C  0.23297930  0.78076882  0.60858107     0.01400
F1664       F  0.26816349  0.74022095  0.63172361    -0.12900
F1665       F  0.20404923  0.79904790  0.70388416    -0.13400
C1666       C  0.23632234  0.80805816  0.60009032     0.16400
C1667       C  0.23561188  0.81513675  0.57229832     0.25800
C1668       C  0.23200614  0.79513980  0.55178556    -0.40500
C1669       C  0.23024992  0.76757248  0.55999136     0.32700
C1670       C  0.23042708  0.76046547  0.58809613     0.14400
F1671       F  0.24047613  0.82808832  0.61882838    -0.12900
F1672       F  0.22657746  0.74772208  0.54099425    -0.13400
F1673       F  0.23780494  0.84199836  0.56541618    -0.15700
F1674       F  0.22673777  0.73387035  0.59526366    -0.14200
F1675       F  0.19808636  0.80688908  0.64867961    -0.14200
F1676       F  0.27229464  0.73121416  0.68650376    -0.15600
C1677       C  0.25656499  0.78871070  0.40563903     0.14400
C1678       C  0.23387607  0.77952617  0.39045624     0.01400
C1679       C  0.20920410  0.77461397  0.40438370     0.16400
C1680       C  0.20690785  0.77929225  0.43263358     0.25800
C1681       C  0.22911640  0.78938095  0.44783039    -0.40600
C1682       C  0.25404976  0.79409236  0.43398653     0.32800
C1683       C  0.23524316  0.77543093  0.36007710     0.01400
F1684       F  0.18687929  0.76625491  0.39030225    -0.12900
F1685       F  0.27528961  0.80574801  0.44741547    -0.13400
C1686       C  0.24548034  0.75091941  0.34921889     0.16400
C1687       C  0.24502723  0.74608859  0.32089149     0.25800
C1688       C  0.23478400  0.76583981  0.30248887    -0.40500
C1689       C  0.22429722  0.79039402  0.31335073     0.32700
C1690       C  0.22437286  0.79503299  0.34188766     0.14400
F1691       F  0.25602196  0.73158488  0.36613039    -0.12900
F1692       F  0.21428292  0.80995878  0.29637860    -0.13400
F1693       F  0.25536260  0.72218959  0.31126339    -0.15700
F1694       F  0.21412183  0.81883025  0.35184271    -0.14200
F1695       F  0.28075492  0.79366467  0.39280753    -0.14200
F1696       F  0.18223033  0.77572234  0.44495700    -0.15600
C1697       C  0.09904447  0.92505108  0.48231289     0.14400
C1698       C  0.10718170  0.91031967  0.50554196     0.01400
C1699       C  0.09225456  0.91302415  0.53006763     0.16400
C1700       C  0.06950189  0.93036813  0.53128182     0.25800
C1701       C  0.06114935  0.94493835  0.50782326    -0.40600
C1702       C  0.07621016  0.94195047  0.48332165     0.32800
C1703       C  0.13092362  0.89177790  0.50359343     0.01400
F1704       F  0.09932377  0.89843183  0.55264592    -0.12900
F1705       F  0.06948410  0.95607635  0.46034675    -0.13400
C1706       C  0.15377450  0.89531365  0.52052362     0.16400
C1707       C  0.17628248  0.87784329  0.51805357     0.25800
C1708       C  0.17632181  0.85683483  0.49838873    -0.40500
C1709       C  0.15384385  0.85402574  0.48083815     0.32700
C1710       C  0.13118636  0.87105357  0.48373602     0.14400
F1711       F  0.15438902  0.91582866  0.53920007    -0.12900
F1712       F  0.15323495  0.83403050  0.46161201    -0.13400
F1713       F  0.19811662  0.88157047  0.53469996    -0.15700
F1714       F  0.10911300  0.86690435  0.46752706    -0.14200
F1715       F  0.11370612  0.92360841  0.45866682    -0.14200
F1716       F  0.05550163  0.93253046  0.55525266    -0.15600
loop_ 
_geom_bond_atom_site_label_1 
_geom_bond_atom_site_label_2 
_geom_bond_distance 
_geom_bond_site_symmetry_2 
_ccdc_geom_bond_type 
C1            N2   1.357       .  A
C1            N6   1.379       .  A
C1         C1681   1.492       .  S
N2            C3   1.351       .  A
C3            N4   1.347       .  A
C3         C1708   1.472       .  S
N4            C5   1.354       .  A
C5            N6   1.379       .  A
C5         C1668   1.499       .  S
C7            N8   1.349       .  A
C7           N12   1.370       .  A
C7         C1601   1.477       .  S
N8            C9   1.346       .  A
C9           N10   1.355       .  A
C9         C1648   1.474       .  S
N10          C11   1.360       .  A
C11          N12   1.372       .  A
C11        C1621   1.484       .  S
C13          N14   1.357       .  A
C13          N18   1.371       .  A
C13        C1548   1.481       .  S
N14          C15   1.354       .  A
C15          N16   1.348       .  A
C15        C1581   1.471       .  S
N16          C17   1.353       .  A
C17          N18   1.370       .  A
C17        C1568   1.480       .  S
C19          N20   1.360       .  A
C19          N24   1.375       .  A
C19        C1501   1.498       .  S
N20          C21   1.356       .  A
C21          N22   1.348       .  A
C21        C1528   1.484       .  S
N22          C23   1.353       .  A
C23          N24   1.375       .  A
C23        C1481   1.487       .  S
C25          N26   1.373       .  A
C25          N30   1.354       .  A
C25        C1421   1.480       .  S
N26          C27   1.372       .  A
C27          N28   1.356       .  A
C27        C1448   1.490       .  S
N28          C29   1.350       .  A
C29          N30   1.349       .  A
C29        C1461   1.469       .  S
C31          N32   1.374       .  A
C31          N36   1.355       .  A
C31        C1381   1.490       .  S
N32          C33   1.375       .  A
C33          N34   1.354       .  A
C33        C1368   1.485       .  S
N34          C35   1.350       .  A
C35          N36   1.349       .  A
C35        C1401   1.474       .  S
C37          N38   1.376       .  A
C37          N42   1.356       .  A
C37        C1321   1.491       .  S
N38          C39   1.376       .  A
C39          N40   1.353       .  A
C39        C1301   1.490       .  S
N40          C41   1.350       .  A
C41          N42   1.352       .  A
C41        C1341   1.474       .  S
C43          N44   1.355       .  A
C43          N48   1.368       .  A
C43        C1241   1.483       .  S
N44          C45   1.352       .  A
C45          N46   1.352       .  A
C45        C1288   1.482       .  S
N46          C47   1.358       .  A
C47          N48   1.369       .  A
C47        C1261   1.476       .  S
C49          N50   1.357       .  A
C49          N54   1.374       .  A
C49        C1188   1.494       .  S
N50          C51   1.353       .  A
C51          N52   1.354       .  A
C51        C1228   1.487       .  S
N52          C53   1.356       .  A
C53          N54   1.374       .  A
C53        C1208   1.488       .  S
C55          N56   1.375   1_455  A
C55          N60   1.353       .  A
C55        C1168   1.486       .  S
N56          C57   1.375       .  A
C57          N58   1.352       .  A
C57        C1148   1.486       .  S
N58          C59   1.347       .  A
C59          N60   1.348   1_655  A
C59        C1121   1.463       .  S
C61        C1061   1.483       .  S
C61          C62   1.411       .  A
C61          C66   1.413       .  A
C62        C1161   1.494       .  S
C62          C63   1.413       .  A
C63        C1021   1.493       .  S
C63          C64   1.414       .  A
C64        C1101   1.484       .  S
C64          C65   1.414       .  A
C65        C1048   1.498       .  S
C65          C66   1.411       .  A
C66        C1088   1.486       .  S
C67          N68   1.371       .  A
C67          N72   1.354       .  A
C67        C1108   1.479       .  S
N68          C69   1.369   1_545  A
C69          N70   1.354       .  A
C69        C1001   1.477       .  S
N70          C71   1.351       .  A
C71          N72   1.349   1_565  A
C71         C981   1.470       .  S
C73         C968   1.499       .  S
C73          C74   1.420       .  A
C73          C78   1.418       .  A
C74        C1688   1.504       .  S
C74          C75   1.419       .  A
C75        C1008   1.489       .  S
C75          C76   1.416       .  A
C76        C1508   1.500       .  S
C76          C77   1.416       .  A
C77         C941   1.495       .  S
C77          C78   1.419       .  A
C78         C921   1.496       .  S
C79         C901   1.489       .  S
C79          C80   1.412       .  A
C79          C84   1.411       .  A
C80        C1628   1.487       .  S
C80          C81   1.414       .  A
C81        C1141   1.492       .  S
C81          C82   1.408       .  A
C82        C1428   1.486       .  S
C82          C83   1.410       .  A
C83         C881   1.487       .  S
C83          C84   1.411       .  A
C84         C861   1.488       .  S
C85          N86   1.355       .  A
C85          N90   1.371       .  A
C85         C908   1.484       .  S
N86          C87   1.351       .  A
C87          N88   1.352   1_545  A
C87         C828   1.477       .  S
N88          C89   1.357       .  A
C89          N90   1.371   1_565  A
C89         C841   1.485       .  S
C91         C801   1.494       .  S
C91          C92   1.412       .  A
C91          C96   1.419       .  A
C92        C1541   1.493       .  S
C92          C93   1.412       .  A
C93         C848   1.494       .  S
C93          C94   1.413       .  A
C94        C1488   1.490       .  S
C94          C95   1.419       .  A
C95         C781   1.500       .  S
C95          C96   1.423       .  A
C96        C1441   1.498       .  S
C97          N98   1.375   1_455  A
C97         N102   1.356       .  A
C97         C961   1.494       .  S
N98          C99   1.376       .  A
C99         N100   1.352       .  A
C99         C808   1.488       .  S
N100        C101   1.351       .  A
C101        N102   1.357   1_655  A
C101        C761   1.478       .  S
C103        N104   1.371       .  A
C103        N108   1.354       .  A
C103       C1081   1.485       .  S
N104        C105   1.371   1_554  A
C105        N106   1.359       .  A
C105        C748   1.486       .  S
N106        C107   1.355       .  A
C107        N108   1.351   1_556  A
C107        C728   1.470       .  S
C109       C1248   1.492       .  S
C109        C110   1.423       .  A
C109        C114   1.414       .  A
C110        C741   1.503       .  S
C110        C111   1.426       .  A
C111       C1328   1.512       .  S
C111        C112   1.422       .  A
C112        C701   1.495       .  S
C112        C113   1.414       .  A
C113        C668   1.492       .  S
C113        C114   1.410       .  A
C114        C681   1.497       .  S
C115        N116   1.371   1_545  A
C115        N120   1.358       .  A
C115        C708   1.482       .  S
N116        C117   1.370       .  A
C117        N118   1.354       .  A
C117        C641   1.480       .  S
N118        C119   1.350       .  A
C119        N120   1.355   1_565  A
C119        C628   1.486       .  S
C121       C1181   1.495       .  S
C121        C122   1.417       .  A
C121        C126   1.417       .  A
C122        C648   1.488       .  S
C122        C123   1.415       .  A
C123       C1661   1.495       .  S
C123        C124   1.410       .  A
C124        C601   1.493       .  S
C124        C125   1.415       .  A
C125       C1268   1.484       .  S
C125        C126   1.417       .  A
C126        C581   1.501       .  S
C127        N128   1.377       .  A
C127        N132   1.348       .  A
C127        C608   1.483       .  S
N128        C129   1.377   1_455  A
C129        N130   1.353       .  A
C129        C568   1.496       .  S
N130        C131   1.358   1_655  A
C131        N132   1.351       .  A
C131        C541   1.471       .  S
C133        N134   1.355       .  A
C133        N138   1.374   1_455  A
C133        C688   1.491       .  S
N134        C135   1.351   1_455  A
C135        N136   1.351       .  A
C135        C508   1.483       .  S
N136        C137   1.355       .  A
C137        N138   1.373       .  A
C137        C521   1.482       .  S
C139       C1608   1.494       .  S
C139        C140   1.415       .  A
C139        C144   1.418       .  A
C140        C488   1.499       .  S
C140        C141   1.413       .  A
C141       C1308   1.491       .  S
C141        C142   1.418       .  A
C142        C461   1.494       .  S
C142        C143   1.416       .  A
C143       C1388   1.498       .  S
C143        C144   1.415       .  A
C144        C528   1.490       .  S
C145        N146   1.376       .  A
C145        N150   1.360       .  A
C145        C481   1.496       .  S
N146        C147   1.374   1_545  A
C147        N148   1.353       .  A
C147        C441   1.488       .  S
N148        C149   1.351   1_565  A
C149        N150   1.355       .  A
C149        C421   1.479   1_545  S
C151       C1561   1.489       .  S
C151        C152   1.414       .  A
C151        C156   1.416       .  A
C152        C561   1.498       .  S
C152        C153   1.416       .  A
C153       C1361   1.495       .  S
C153        C154   1.422       .  A
C154        C401   1.498       .  S
C154        C155   1.418       .  A
C155       C1201   1.498       .  S
C155        C156   1.417       .  A
C156        C448   1.496       .  S
C157        N158   1.347       .  A
C157        N162   1.375       .  A
C157        C948   1.488       .  S
N158        C159   1.346       .  A
C159        N160   1.356   1_554  A
C159        C388   1.484       .  S
N160        C161   1.361       .  A
C161        N162   1.378   1_556  A
C161        C588   1.496       .  S
C163        N164   1.370   1_554  A
C163        N168   1.355       .  A
C163        C888   1.477       .  S
N164        C165   1.370       .  A
C165        N166   1.356       .  A
C165        C468   1.480       .  S
N166        C167   1.351       .  A
C167        N168   1.351   1_556  A
C167        C361   1.471       .  S
C169        N170   1.353       .  A
C169        N174   1.374       .  A
C169        C788   1.491       .  S
N170        C171   1.350       .  A
C171        N172   1.352   1_554  A
C171        C341   1.475       .  S
N172        C173   1.357       .  A
C173        N174   1.375   1_556  A
C173        C408   1.489       .  S
C175        N176   1.355       .  A
C175        N180   1.376       .  A
C175       C1041   1.486       .  S
N176        C177   1.350       .  A
C177        N178   1.349       .  A
C177        C328   1.476       .  S
N178        C179   1.354       .  A
C179        N180   1.375       .  A
C179        C868   1.494       .  S
C181        N182   1.370       .  A
C181        N186   1.355       .  A
C181       C1068   1.473       .  S
N182        C183   1.367       .  A
C183        N184   1.356       .  A
C183        C928   1.481       .  S
N184        C185   1.353       .  A
C185        N186   1.349       .  A
C185        C308   1.481       .  S
C187        N188   1.373       .  A
C187        N192   1.352       .  A
C187        C661   1.477       .  S
N188        C189   1.373       .  A
C189        N190   1.357       .  A
C189       C1028   1.490       .  S
N190        C191   1.352       .  A
C191        N192   1.347       .  A
C191        C288   1.472       .  S
O193       Ni201   1.909   1_655  S
O193        C203   1.280       .  A
O194       Ni201   1.908   1_545  S
O194        C204   1.280       .  A
O195       Ni201   1.900       .  S
O195        C205   1.279       .  A
O196       Ni201   1.905   1_645  S
O196        C206   1.279       .  A
O197       Ni202   1.922   1_655  S
O197        C206   1.283       .  A
O198       Ni202   1.921   1_565  S
O198        C205   1.282       .  A
O199       Ni202   1.907       .  S
O199        C204   1.280       .  A
O200       Ni202   1.909   1_665  S
O200        C203   1.280       .  A
Ni201      Ni202   2.386   1_565  S
C203       C1588   1.473       .  S
C204        C281   1.476       .  S
C205       C1701   1.480       .  S
C206       C1641   1.483       .  S
O207       Ni215   1.914   1_564  S
O207        C217   1.281       .  A
O208       Ni215   1.919       .  S
O208        C218   1.282       .  A
O209       Ni215   1.912   1_565  S
O209        C219   1.280       .  A
O210       Ni215   1.908   1_554  S
O210        C220   1.279       .  A
O211       Ni216   1.920   1_554  S
O211        C220   1.282       .  A
O212       Ni216   1.918   1_565  S
O212        C219   1.281       .  A
O213       Ni216   1.914       .  S
O213        C218   1.281       .  A
O214       Ni216   1.912   1_564  S
O214        C217   1.280       .  A
Ni215      Ni216   2.389       .  S
C217       C1521   1.471       .  S
C218       C1348   1.480       .  S
C219       C1221   1.472       .  S
C220        C321   1.475       .  S
O221       Ni229   1.911   1_554  S
O221        C231   1.280       .  A
O222       Ni229   1.913   1_655  S
O222        C232   1.280       .  A
O223       Ni229   1.915       .  S
O223        C233   1.281       .  A
O224       Ni229   1.919   1_654  S
O224        C234   1.282       .  A
O225       Ni230   1.896   1_655  S
O225        C234   1.277       .  A
O226       Ni230   1.906   1_556  S
O226        C233   1.278       .  A
O227       Ni230   1.909   1_656  S
O227        C232   1.280       .  A
O228       Ni230   1.916       .  S
O228        C231   1.282       .  A
Ni229      Ni230   2.390   1_556  S
C231        C301   1.477       .  S
C232       C1408   1.472       .  S
C233       C1281   1.466       .  S
C234       C1468   1.470       .  S
O235       Ni243   1.898       .  S
O235        C245   1.277       .  A
O236       Ni243   1.892       .  S
O236        C246   1.277   1_554  A
O237       Ni243   1.901       .  S
O237        C247   1.280   1_554  A
O238       Ni243   1.903       .  S
O238        C248   1.279   1_554  A
O239       Ni244   1.914       .  S
O239        C248   1.282       .  A
O240       Ni244   1.908       .  S
O240        C247   1.279       .  A
O241       Ni244   1.918       .  S
O241        C246   1.281       .  A
O242       Ni244   1.915       .  S
O242        C245   1.282   1_556  A
Ni243      Ni244   2.390   1_554  S
C245        C381   1.464       .  S
C246        C368   1.466       .  S
C247        C348   1.469       .  S
C248        C721   1.481       .  S
O249       Ni257   1.922       .  S
O249        C259   1.283   1_455  A
O250       Ni257   1.928       .  S
O250        C260   1.284       .  A
O251       Ni257   1.911       .  S
O251        C261   1.281       .  A
O252       Ni257   1.898       .  S
O252        C262   1.278       .  A
O253       Ni258   1.905       .  S
O253        C262   1.280   1_655  A
O254       Ni258   1.906       .  S
O254        C261   1.280   1_655  A
O255       Ni258   1.906       .  S
O255        C260   1.279   1_655  A
O256       Ni258   1.905       .  S
O256        C259   1.278       .  A
Ni257      Ni258   2.388   1_455  S
C259        C501   1.470       .  S
C260        C768   1.483       .  S
C261        C548   1.478       .  S
C262       C1128   1.465   1_455  S
O263       Ni271   1.920       .  S
O263        C273   1.283   1_565  A
O264       Ni271   1.920       .  S
O264        C274   1.282       .  A
O265       Ni271   1.905       .  S
O265        C275   1.279       .  A
O266       Ni271   1.910       .  S
O266        C276   1.280   1_565  A
O267       Ni272   1.917       .  S
O267        C276   1.281       .  A
O268       Ni272   1.914       .  S
O268        C275   1.282   1_545  A
O269       Ni272   1.906       .  S
O269        C274   1.279   1_545  A
O270       Ni272   1.903       .  S
O270        C273   1.278       .  A
Ni271      Ni272   2.389   1_565  S
C273        C821   1.478       .  S
C274        C621   1.469       .  S
C275        C988   1.477       .  S
C276        C428   1.472       .  S
C277        C278   1.403       .  A
C277        C282   1.393       .  A
C277        F295   1.359       .  S
C278        C283   1.473       .  S
C278        C279   1.403       .  A
C279        C280   1.394       .  A
C279        F284   1.358       .  S
C280        C281   1.409       .  A
C280        F296   1.358       .  S
C281        C282   1.410       .  A
C282        F285   1.358       .  S
C283        C286   1.405       .  A
C283        C290   1.403       .  A
C286        C287   1.396       .  A
C286        F291   1.358       .  S
C287        C288   1.407       .  A
C287        F293   1.358       .  S
C288        C289   1.408       .  A
C289        C290   1.391       .  A
C289        F292   1.358       .  S
C290        F294   1.358       .  S
C297        C298   1.404       .  A
C297        C302   1.396       .  A
C297        F315   1.358       .  S
C298        C303   1.477       .  S
C298        C299   1.405       .  A
C299        C300   1.398       .  A
C299        F304   1.358       .  S
C300        C301   1.409       .  A
C300        F316   1.358       .  S
C301        C302   1.408       .  A
C302        F305   1.358       .  S
C303        C306   1.403       .  A
C303        C310   1.404       .  A
C306        C307   1.398       .  A
C306        F311   1.358       .  S
C307        C308   1.411       .  A
C307        F313   1.358       .  S
C308        C309   1.410       .  A
C309        C310   1.396       .  A
C309        F312   1.359       .  S
C310        F314   1.358       .  S
C317        C318   1.401       .  A
C317        C322   1.396       .  A
C317        F335   1.358       .  S
C318        C323   1.471       .  S
C318        C319   1.404       .  A
C319        C320   1.397       .  A
C319        F324   1.358       .  S
C320        C321   1.407       .  A
C320        F336   1.358       .  S
C321        C322   1.408       .  A
C322        F325   1.357       .  S
C323        C326   1.403       .  A
C323        C330   1.402       .  A
C326        C327   1.395       .  A
C326        F331   1.358       .  S
C327        C328   1.409       .  A
C327        F333   1.358       .  S
C328        C329   1.410       .  A
C329        C330   1.396       .  A
C329        F332   1.358       .  S
C330        F334   1.358       .  S
C337        C338   1.402       .  A
C337        C342   1.393       .  A
C337        F355   1.359       .  S
C338        C343   1.466   1_554  S
C338        C339   1.400   1_554  A
C339        C340   1.395       .  A
C339        F344   1.358       .  S
C340        C341   1.410   1_556  A
C340        F356   1.357       .  S
C341        C342   1.410       .  A
C342        F345   1.358       .  S
C343        C346   1.404       .  A
C343        C350   1.400   1_556  A
C346        C347   1.393       .  A
C346        F351   1.358       .  S
C347        C348   1.406       .  A
C347        F353   1.358       .  S
C348        C349   1.409   1_556  A
C349        C350   1.394       .  A
C349        F352   1.358       .  S
C350        F354   1.358       .  S
C357        C358   1.400       .  A
C357        C362   1.396       .  A
C357        F375   1.358       .  S
C358        C363   1.464       .  S
C358        C359   1.402   1_556  A
C359        C360   1.394       .  A
C359        F364   1.358       .  S
C360        C361   1.407   1_554  A
C360        F376   1.358       .  S
C361        C362   1.408       .  A
C362        F365   1.358       .  S
C363        C366   1.399   1_556  A
C363        C370   1.403       .  A
C366        C367   1.392       .  A
C366        F371   1.358       .  S
C367        C368   1.407   1_554  A
C367        F373   1.358       .  S
C368        C369   1.406       .  A
C369        C370   1.397       .  A
C369        F372   1.358       .  S
C370        F374   1.358       .  S
C377        C378   1.410       .  A
C377        C382   1.392       .  A
C377        F395   1.358       .  S
C378        C383   1.479       .  S
C378        C379   1.407   1_554  A
C379        C380   1.394       .  A
C379        F384   1.358       .  S
C380        C381   1.403   1_556  A
C380        F396   1.358       .  S
C381        C382   1.404       .  A
C382        F385   1.359       .  S
C383        C386   1.401       .  A
C383        C390   1.409   1_554  A
C386        C387   1.392       .  A
C386        F391   1.358       .  S
C387        C388   1.416       .  A
C387        F393   1.358       .  S
C388        C389   1.407   1_554  A
C389        C390   1.395       .  A
C389        F392   1.358       .  S
C390        F394   1.358       .  S
C397        C398   1.407       .  A
C397        C402   1.404       .  A
C397        F415   1.358       .  S
C398        C403   1.499       .  S
C398        C399   1.412       .  A
C399        C400   1.406       .  A
C399        F404   1.357       .  S
C400        C401   1.405       .  A
C400        F416   1.356       .  S
C401        C402   1.411       .  A
C402        F405   1.359       .  S
C403        C406   1.411       .  A
C403        C410   1.407       .  A
C406        C407   1.408       .  A
C406        F411   1.357       .  S
C407        C408   1.407       .  A
C407        F413   1.357       .  S
C408        C409   1.410       .  A
C409        C410   1.403       .  A
C409        F412   1.358       .  S
C410        F414   1.359       .  S
C417        C418   1.402       .  A
C417        C422   1.399       .  A
C417        F435   1.357       .  S
C418        C423   1.470       .  S
C418        C419   1.400   1_545  A
C419        C420   1.393       .  A
C419        F424   1.358       .  S
C420        C421   1.411       .  A
C420        F436   1.358       .  S
C421        C422   1.409   1_565  A
C422        F425   1.357       .  S
C423        C426   1.405       .  A
C423        C430   1.400   1_545  A
C426        C427   1.400       .  A
C426        F431   1.359       .  S
C427        C428   1.407       .  A
C427        F433   1.358       .  S
C428        C429   1.407   1_545  A
C429        C430   1.394       .  A
C429        F432   1.358       .  S
C430        F434   1.358       .  S
C437        C438   1.410       .  A
C437        C442   1.409       .  A
C437        F455   1.358       .  S
C438        C443   1.499       .  S
C438        C439   1.406       .  A
C439        C440   1.405       .  A
C439        F444   1.358       .  S
C440        C441   1.410       .  A
C440        F456   1.358       .  S
C441        C442   1.407       .  A
C442        F445   1.357       .  S
C443        C446   1.413       .  A
C443        C450   1.405       .  A
C446        C447   1.411       .  A
C446        F451   1.357       .  S
C447        C448   1.405       .  A
C447        F453   1.357       .  S
C448        C449   1.410       .  A
C449        C450   1.402       .  A
C449        F452   1.358       .  S
C450        F454   1.358       .  S
C457        C458   1.401       .  A
C457        C462   1.400       .  A
C457        F475   1.358       .  S
C458        C463   1.488       .  S
C458        C459   1.411       .  A
C459        C460   1.410       .  A
C459        F464   1.357       .  S
C460        C461   1.406       .  A
C460        F476   1.357       .  S
C461        C462   1.411       .  A
C462        F465   1.357       .  S
C463        C466   1.410       .  A
C463        C470   1.403       .  A
C466        C467   1.409       .  A
C466        F471   1.358       .  S
C467        C468   1.407       .  A
C467        F473   1.358       .  S
C468        C469   1.407       .  A
C469        C470   1.399       .  A
C469        F472   1.359       .  S
C470        F474   1.358       .  S
C477        C478   1.412       .  A
C477        C482   1.414       .  A
C477        F495   1.358       .  S
C478        C483   1.502       .  S
C478        C479   1.406       .  A
C479        C480   1.404       .  A
C479        F484   1.358       .  S
C480        C481   1.410       .  A
C480        F496   1.358       .  S
C481        C482   1.409       .  A
C482        F485   1.358       .  S
C483        C486   1.413       .  A
C483        C490   1.406       .  A
C486        C487   1.409       .  A
C486        F491   1.357       .  S
C487        C488   1.406       .  A
C487        F493   1.356       .  S
C488        C489   1.409       .  A
C489        C490   1.405       .  A
C489        F492   1.358       .  S
C490        F494   1.357       .  S
C497        C498   1.409       .  A
C497        C502   1.396       .  A
C497        F515   1.358       .  S
C498        C503   1.483       .  S
C498        C499   1.407   1_655  A
C499        C500   1.397       .  A
C499        F504   1.358       .  S
C500        C501   1.404   1_455  A
C500        F516   1.358       .  S
C501        C502   1.405       .  A
C502        F505   1.358       .  S
C503        C506   1.405       .  A
C503        C510   1.406   1_655  A
C506        C507   1.396       .  A
C506        F511   1.358       .  S
C507        C508   1.411       .  A
C507        F513   1.358       .  S
C508        C509   1.411   1_655  A
C509        C510   1.395       .  A
C509        F512   1.358       .  S
C510        F514   1.358       .  S
C517        C518   1.409       .  A
C517        C522   1.406       .  A
C517        F535   1.358       .  S
C518        C523   1.490       .  S
C518        C519   1.405       .  A
C519        C520   1.404       .  A
C519        F524   1.359       .  S
C520        C521   1.410       .  A
C520        F536   1.358       .  S
C521        C522   1.404       .  A
C522        F525   1.357       .  S
C523        C526   1.402       .  A
C523        C530   1.412       .  A
C526        C527   1.398       .  A
C526        F531   1.358       .  S
C527        C528   1.409       .  A
C527        F533   1.358       .  S
C528        C529   1.405       .  A
C529        C530   1.409       .  A
C529        F532   1.357       .  S
C530        F534   1.357       .  S
C537        C538   1.405   1_655  A
C537        C542   1.393       .  A
C537        F555   1.358       .  S
C538        C543   1.478       .  S
C538        C539   1.406       .  A
C539        C540   1.395       .  A
C539        F544   1.358       .  S
C540        C541   1.410       .  A
C540        F556   1.359       .  S
C541        C542   1.406   1_455  A
C542        F545   1.358       .  S
C543        C546   1.405   1_455  A
C543        C550   1.405       .  A
C546        C547   1.393       .  A
C546        F551   1.358       .  S
C547        C548   1.408   1_655  A
C547        F553   1.358       .  S
C548        C549   1.409       .  A
C549        C550   1.397       .  A
C549        F552   1.358       .  S
C550        F554   1.358       .  S
C557        C558   1.406       .  A
C557        C562   1.404       .  A
C557        F575   1.357       .  S
C558        C563   1.505       .  S
C558        C559   1.415       .  A
C559        C560   1.413       .  A
C559        F564   1.357       .  S
C560        C561   1.406       .  A
C560        F576   1.357       .  S
C561        C562   1.407       .  A
C562        F565   1.358       .  S
C563        C566   1.407       .  A
C563        C570   1.414       .  A
C566        C567   1.405       .  A
C566        F571   1.358       .  S
C567        C568   1.411       .  A
C567        F573   1.358       .  S
C568        C569   1.406       .  A
C569        C570   1.414       .  A
C569        F572   1.358       .  S
C570        F574   1.357       .  S
C577        C578   1.405       .  A
C577        C582   1.403       .  A
C577        F595   1.357       .  S
C578        C583   1.504       .  S
C578        C579   1.414       .  A
C579        C580   1.414       .  A
C579        F584   1.357       .  S
C580        C581   1.407       .  A
C580        F596   1.357       .  S
C581        C582   1.408       .  A
C582        F585   1.357       .  S
C583        C586   1.407       .  A
C583        C590   1.412       .  A
C586        C587   1.407       .  A
C586        F591   1.358       .  S
C587        C588   1.411       .  A
C587        F593   1.358       .  S
C588        C589   1.408       .  A
C589        C590   1.411       .  A
C589        F592   1.357       .  S
C590        F594   1.357       .  S
C597        C598   1.411       .  A
C597        C602   1.411       .  A
C597        F615   1.357       .  S
C598        C603   1.492       .  S
C598        C599   1.403       .  A
C599        C600   1.401       .  A
C599        F604   1.358       .  S
C600        C601   1.407       .  A
C600        F616   1.358       .  S
C601        C602   1.406       .  A
C602        F605   1.357       .  S
C603        C606   1.408       .  A
C603        C610   1.405       .  A
C606        C607   1.407       .  A
C606        F611   1.358       .  S
C607        C608   1.408       .  A
C607        F613   1.358       .  S
C608        C609   1.408       .  A
C609        C610   1.405       .  A
C609        F612   1.358       .  S
C610        F614   1.357       .  S
C617        C618   1.406   1_545  A
C617        C622   1.395       .  A
C617        F635   1.358       .  S
C618        C623   1.478       .  S
C618        C619   1.406       .  A
C619        C620   1.398       .  A
C619        F624   1.358       .  S
C620        C621   1.404       .  A
C620        F636   1.358       .  S
C621        C622   1.405   1_565  A
C622        F625   1.358       .  S
C623        C626   1.402   1_565  A
C623        C630   1.404       .  A
C626        C627   1.396       .  A
C626        F631   1.357       .  S
C627        C628   1.410   1_545  A
C627        F633   1.357       .  S
C628        C629   1.414       .  A
C629        C630   1.397       .  A
C629        F632   1.358       .  S
C630        F634   1.359       .  S
C637        C638   1.402       .  A
C637        C642   1.400       .  A
C637        F655   1.358       .  S
C638        C643   1.488       .  S
C638        C639   1.410       .  A
C639        C640   1.409       .  A
C639        F644   1.358       .  S
C640        C641   1.406       .  A
C640        F656   1.357       .  S
C641        C642   1.408       .  A
C642        F645   1.358       .  S
C643        C646   1.402       .  A
C643        C650   1.411       .  A
C646        C647   1.399       .  A
C646        F651   1.358       .  S
C647        C648   1.409       .  A
C647        F653   1.358       .  S
C648        C649   1.404       .  A
C649        C650   1.407       .  A
C649        F652   1.357       .  S
C650        F654   1.357       .  S
C657        C658   1.406       .  A
C657        C662   1.404       .  A
C657        F675   1.358       .  S
C658        C663   1.492       .  S
C658        C659   1.410       .  A
C659        C660   1.405       .  A
C659        F664   1.358       .  S
C660        C661   1.405       .  A
C660        F676   1.358       .  S
C661        C662   1.408       .  A
C662        F665   1.358       .  S
C663        C666   1.412       .  A
C663        C670   1.403       .  A
C666        C667   1.408       .  A
C666        F671   1.358       .  S
C667        C668   1.407       .  A
C667        F673   1.357       .  S
C668        C669   1.407       .  A
C669        C670   1.398       .  A
C669        F672   1.358       .  S
C670        F674   1.358       .  S
C677        C678   1.413       .  A
C677        C682   1.412       .  A
C677        F695   1.357       .  S
C678        C683   1.496       .  S
C678        C679   1.403       .  A
C679        C680   1.400       .  A
C679        F684   1.358       .  S
C680        C681   1.408       .  A
C680        F696   1.356       .  S
C681        C682   1.407       .  A
C682        F685   1.357       .  S
C683        C686   1.404       .  A
C683        C690   1.409       .  A
C686        C687   1.405       .  A
C686        F691   1.358       .  S
C687        C688   1.413       .  A
C687        F693   1.358       .  S
C688        C689   1.406       .  A
C689        C690   1.409       .  A
C689        F692   1.357       .  S
C690        F694   1.357       .  S
C697        C698   1.416       .  A
C697        C702   1.410       .  A
C697        F715   1.358       .  S
C698        C703   1.501       .  S
C698        C699   1.406       .  A
C699        C700   1.399       .  A
C699        F704   1.358       .  S
C700        C701   1.409       .  A
C700        F716   1.356       .  S
C701        C702   1.405       .  A
C702        F705   1.358       .  S
C703        C706   1.408       .  A
C703        C710   1.414       .  A
C706        C707   1.402       .  A
C706        F711   1.357       .  S
C707        C708   1.406       .  A
C707        F713   1.358       .  S
C708        C709   1.405       .  A
C709        C710   1.409       .  A
C709        F712   1.358       .  S
C710        F714   1.358       .  S
C717        C718   1.401       .  A
C717        C722   1.395       .  A
C717        F735   1.357       .  S
C718        C723   1.475       .  S
C718        C719   1.404   1_556  A
C719        C720   1.396       .  A
C719        F724   1.359       .  S
C720        C721   1.412   1_554  A
C720        F736   1.359       .  S
C721        C722   1.410       .  A
C722        F725   1.357       .  S
C723        C726   1.407       .  A
C723        C730   1.403   1_556  A
C726        C727   1.398       .  A
C726        F731   1.358       .  S
C727        C728   1.404       .  A
C727        F733   1.358       .  S
C728        C729   1.406   1_556  A
C729        C730   1.396       .  A
C729        F732   1.358       .  S
C730        F734   1.358       .  S
C737        C738   1.410       .  A
C737        C742   1.410       .  A
C737        F755   1.357       .  S
C738        C743   1.498       .  S
C738        C739   1.405       .  A
C739        C740   1.407       .  A
C739        F744   1.358       .  S
C740        C741   1.413       .  A
C740        F756   1.358       .  S
C741        C742   1.408       .  A
C742        F745   1.356       .  S
C743        C746   1.407       .  A
C743        C750   1.409       .  A
C746        C747   1.407       .  A
C746        F751   1.358       .  S
C747        C748   1.408       .  A
C747        F753   1.358       .  S
C748        C749   1.406       .  A
C749        C750   1.408       .  A
C749        F752   1.358       .  S
C750        F754   1.357       .  S
C757        C758   1.404   1_455  A
C757        C762   1.396       .  A
C757        F775   1.358       .  S
C758        C763   1.478       .  S
C758        C759   1.404       .  A
C759        C760   1.399       .  A
C759        F764   1.358       .  S
C760        C761   1.412       .  A
C760        F776   1.359       .  S
C761        C762   1.407   1_655  A
C762        F765   1.358       .  S
C763        C766   1.403       .  A
C763        C770   1.404   1_655  A
C766        C767   1.399       .  A
C766        F771   1.358       .  S
C767        C768   1.412   1_655  A
C767        F773   1.358       .  S
C768        C769   1.409       .  A
C769        C770   1.398       .  A
C769        F772   1.357       .  S
C770        F774   1.358       .  S
C777        C778   1.407       .  A
C777        C782   1.404       .  A
C777        F795   1.358       .  S
C778        C783   1.505       .  S
C778        C779   1.415       .  A
C779        C780   1.411       .  A
C779        F784   1.357       .  S
C780        C781   1.405       .  A
C780        F796   1.357       .  S
C781        C782   1.410       .  A
C782        F785   1.358       .  S
C783        C786   1.414       .  A
C783        C790   1.407       .  A
C786        C787   1.411       .  A
C786        F791   1.357       .  S
C787        C788   1.406       .  A
C787        F793   1.357       .  S
C788        C789   1.410       .  A
C789        C790   1.404       .  A
C789        F792   1.358       .  S
C790        F794   1.358       .  S
C797        C798   1.414       .  A
C797        C802   1.411       .  A
C797        F815   1.358       .  S
C798        C803   1.497       .  S
C798        C799   1.404       .  A
C799        C800   1.400       .  A
C799        F804   1.358       .  S
C800        C801   1.408       .  A
C800        F816   1.357       .  S
C801        C802   1.405       .  A
C802        F805   1.357       .  S
C803        C806   1.406       .  A
C803        C810   1.412       .  A
C806        C807   1.402       .  A
C806        F811   1.358       .  S
C807        C808   1.409       .  A
C807        F813   1.358       .  S
C808        C809   1.406       .  A
C809        C810   1.411       .  A
C809        F812   1.357       .  S
C810        F814   1.357       .  S
C817        C818   1.403       .  A
C817        C822   1.396       .  A
C817        F835   1.358       .  S
C818        C823   1.474       .  S
C818        C819   1.403   1_545  A
C819        C820   1.395       .  A
C819        F824   1.358       .  S
C820        C821   1.408   1_565  A
C820        F836   1.358       .  S
C821        C822   1.411       .  A
C822        F825   1.358       .  S
C823        C826   1.404   1_545  A
C823        C830   1.403       .  A
C826        C827   1.396       .  A
C826        F831   1.358       .  S
C827        C828   1.408   1_565  A
C827        F833   1.358       .  S
C828        C829   1.410       .  A
C829        C830   1.395       .  A
C829        F832   1.358       .  S
C830        F834   1.358       .  S
C837        C838   1.410       .  A
C837        C842   1.407       .  A
C837        F855   1.357       .  S
C838        C843   1.492       .  S
C838        C839   1.405       .  A
C839        C840   1.401       .  A
C839        F844   1.358       .  S
C840        C841   1.410       .  A
C840        F856   1.358       .  S
C841        C842   1.405       .  A
C842        F845   1.357       .  S
C843        C846   1.402       .  A
C843        C850   1.412       .  A
C846        C847   1.400       .  A
C846        F851   1.358       .  S
C847        C848   1.409       .  A
C847        F853   1.356       .  S
C848        C849   1.405       .  A
C849        C850   1.410       .  A
C849        F852   1.357       .  S
C850        F854   1.358       .  S
C857        C858   1.403       .  A
C857        C862   1.397       .  A
C857        F875   1.357       .  S
C858        C863   1.494       .  S
C858        C859   1.416       .  A
C859        C860   1.410       .  A
C859        F864   1.358       .  S
C860        C861   1.403       .  A
C860        F876   1.357       .  S
C861        C862   1.407       .  A
C862        F865   1.357       .  S
C863        C866   1.402       .  A
C863        C870   1.412       .  A
C866        C867   1.399       .  A
C866        F871   1.358       .  S
C867        C868   1.414       .  A
C867        F873   1.358       .  S
C868        C869   1.409       .  A
C869        C870   1.411       .  A
C869        F872   1.357       .  S
C870        F874   1.358       .  S
C877        C878   1.412       .  A
C877        C882   1.406       .  A
C877        F895   1.357       .  S
C878        C883   1.490       .  S
C878        C879   1.402       .  A
C879        C880   1.398       .  A
C879        F884   1.358       .  S
C880        C881   1.408       .  A
C880        F896   1.357       .  S
C881        C882   1.403       .  A
C882        F885   1.357       .  S
C883        C886   1.411       .  A
C883        C890   1.405       .  A
C886        C887   1.407       .  A
C886        F891   1.358       .  S
C887        C888   1.406       .  A
C887        F893   1.358       .  S
C888        C889   1.406       .  A
C889        C890   1.399       .  A
C889        F892   1.358       .  S
C890        F894   1.358       .  S
C897        C898   1.414       .  A
C897        C902   1.405       .  A
C897        F915   1.358       .  S
C898        C903   1.494       .  S
C898        C899   1.405       .  A
C899        C900   1.400       .  A
C899        F904   1.358       .  S
C900        C901   1.409       .  A
C900        F916   1.357       .  S
C901        C902   1.402       .  A
C902        F905   1.357       .  S
C903        C906   1.405       .  A
C903        C910   1.411       .  A
C906        C907   1.400       .  A
C906        F911   1.358       .  S
C907        C908   1.410       .  A
C907        F913   1.359       .  S
C908        C909   1.406       .  A
C909        C910   1.408       .  A
C909        F912   1.357       .  S
C910        F914   1.358       .  S
C917        C918   1.411       .  A
C917        C922   1.409       .  A
C917        F935   1.358       .  S
C918        C923   1.493       .  S
C918        C919   1.402       .  A
C919        C920   1.401       .  A
C919        F924   1.358       .  S
C920        C921   1.410       .  A
C920        F936   1.357       .  S
C921        C922   1.406       .  A
C922        F925   1.357       .  S
C923        C926   1.404       .  A
C923        C930   1.411       .  A
C926        C927   1.400       .  A
C926        F931   1.357       .  S
C927        C928   1.406       .  A
C927        F933   1.358       .  S
C928        C929   1.406       .  A
C929        C930   1.409       .  A
C929        F932   1.358       .  S
C930        F934   1.357       .  S
C937        C938   1.403       .  A
C937        C942   1.400       .  A
C937        F955   1.358       .  S
C938        C943   1.499       .  S
C938        C939   1.415       .  A
C939        C940   1.412       .  A
C939        F944   1.357       .  S
C940        C941   1.406       .  A
C940        F956   1.357       .  S
C941        C942   1.408       .  A
C942        F945   1.357       .  S
C943        C946   1.405       .  A
C943        C950   1.412       .  A
C946        C947   1.405       .  A
C946        F951   1.358       .  S
C947        C948   1.413       .  A
C947        F953   1.359       .  S
C948        C949   1.405       .  A
C949        C950   1.410       .  A
C949        F952   1.357       .  S
C950        F954   1.357       .  S
C957        C958   1.406       .  A
C957        C962   1.405       .  A
C957        F975   1.357       .  S
C958        C963   1.501       .  S
C958        C959   1.411       .  A
C959        C960   1.414       .  A
C959        F964   1.358       .  S
C960        C961   1.409       .  A
C960        F976   1.358       .  S
C961        C962   1.408       .  A
C962        F965   1.358       .  S
C963        C966   1.412       .  A
C963        C970   1.405       .  A
C966        C967   1.411       .  A
C966        F971   1.357       .  S
C967        C968   1.405       .  A
C967        F973   1.356       .  S
C968        C969   1.411       .  A
C969        C970   1.406       .  A
C969        F972   1.358       .  S
C970        F974   1.358       .  S
C977        C978   1.404   1_545  A
C977        C982   1.394       .  A
C977        F995   1.358       .  S
C978        C983   1.473       .  S
C978        C979   1.404       .  A
C979        C980   1.393       .  A
C979        F984   1.357       .  S
C980        C981   1.406       .  A
C980        F996   1.358       .  S
C981        C982   1.408   1_565  A
C982        F985   1.358       .  S
C983        C986   1.404   1_565  A
C983        C990   1.402       .  A
C986        C987   1.393       .  A
C986        F991   1.358       .  S
C987        C988   1.407   1_545  A
C987        F993   1.358       .  S
C988        C989   1.412       .  A
C989        C990   1.396       .  A
C989        F992   1.358       .  S
C990        F994   1.358       .  S
C997        C998   1.409       .  A
C997       C1002   1.404       .  A
C997       F1015   1.358       .  S
C998       C1003   1.493       .  S
C998        C999   1.407       .  A
C999       C1000   1.403       .  A
C999       F1004   1.358       .  S
C1000      C1001   1.406       .  A
C1000      F1016   1.357       .  S
C1001      C1002   1.405       .  A
C1002      F1005   1.358       .  S
C1003      C1006   1.413       .  A
C1003      C1010   1.404       .  A
C1006      C1007   1.407       .  A
C1006      F1011   1.357       .  S
C1007      C1008   1.402       .  A
C1007      F1013   1.357       .  S
C1008      C1009   1.409       .  A
C1009      C1010   1.400       .  A
C1009      F1012   1.358       .  S
C1010      F1014   1.358       .  S
C1017      C1018   1.408       .  A
C1017      C1022   1.402       .  A
C1017      F1035   1.357       .  S
C1018      C1023   1.506       .  S
C1018      C1019   1.417       .  A
C1019      C1020   1.409       .  A
C1019      F1024   1.357       .  S
C1020      C1021   1.403       .  A
C1020      F1036   1.357       .  S
C1021      C1022   1.408       .  A
C1022      F1025   1.357       .  S
C1023      C1026   1.416       .  A
C1023      C1030   1.408       .  A
C1026      C1027   1.411       .  A
C1026      F1031   1.357       .  S
C1027      C1028   1.406       .  A
C1027      F1033   1.358       .  S
C1028      C1029   1.409       .  A
C1029      C1030   1.402       .  A
C1029      F1032   1.358       .  S
C1030      F1034   1.358       .  S
C1037      C1038   1.405       .  A
C1037      C1042   1.405       .  A
C1037      F1055   1.358       .  S
C1038      C1043   1.495       .  S
C1038      C1039   1.408       .  A
C1039      C1040   1.409       .  A
C1039      F1044   1.357       .  S
C1040      C1041   1.407       .  A
C1040      F1056   1.357       .  S
C1041      C1042   1.410       .  A
C1042      F1045   1.358       .  S
C1043      C1046   1.403       .  A
C1043      C1050   1.412       .  A
C1046      C1047   1.402       .  A
C1046      F1051   1.358       .  S
C1047      C1048   1.409       .  A
C1047      F1053   1.357       .  S
C1048      C1049   1.407       .  A
C1049      C1050   1.410       .  A
C1049      F1052   1.356       .  S
C1050      F1054   1.357       .  S
C1057      C1058   1.401       .  A
C1057      C1062   1.395       .  A
C1057      F1075   1.358       .  S
C1058      C1063   1.483       .  S
C1058      C1059   1.411       .  A
C1059      C1060   1.406       .  A
C1059      F1064   1.358       .  S
C1060      C1061   1.404       .  A
C1060      F1076   1.357       .  S
C1061      C1062   1.407       .  A
C1062      F1065   1.358       .  S
C1063      C1066   1.408       .  A
C1063      C1070   1.403       .  A
C1066      C1067   1.403       .  A
C1066      F1071   1.358       .  S
C1067      C1068   1.405       .  A
C1067      F1073   1.358       .  S
C1068      C1069   1.407       .  A
C1069      C1070   1.399       .  A
C1069      F1072   1.358       .  S
C1070      F1074   1.358       .  S
C1077      C1078   1.407       .  A
C1077      C1082   1.400       .  A
C1077      F1095   1.359       .  S
C1078      C1083   1.497       .  S
C1078      C1079   1.414       .  A
C1079      C1080   1.405       .  A
C1079      F1084   1.357       .  S
C1080      C1081   1.403       .  A
C1080      F1096   1.357       .  S
C1081      C1082   1.411       .  A
C1082      F1085   1.358       .  S
C1083      C1086   1.416       .  A
C1083      C1090   1.407       .  A
C1086      C1087   1.406       .  A
C1086      F1091   1.357       .  S
C1087      C1088   1.401       .  A
C1087      F1093   1.357       .  S
C1088      C1089   1.406       .  A
C1089      C1090   1.398       .  A
C1089      F1092   1.358       .  S
C1090      F1094   1.358       .  S
C1097      C1098   1.404       .  A
C1097      C1102   1.397       .  A
C1097      F1115   1.358       .  S
C1098      C1103   1.489       .  S
C1098      C1099   1.413       .  A
C1099      C1100   1.405       .  A
C1099      F1104   1.358       .  S
C1100      C1101   1.402       .  A
C1100      F1116   1.357       .  S
C1101      C1102   1.408       .  A
C1102      F1105   1.358       .  S
C1103      C1106   1.404       .  A
C1103      C1110   1.411       .  A
C1106      C1107   1.399       .  A
C1106      F1111   1.359       .  S
C1107      C1108   1.410       .  A
C1107      F1113   1.359       .  S
C1108      C1109   1.404       .  A
C1109      C1110   1.404       .  A
C1109      F1112   1.357       .  S
C1110      F1114   1.357       .  S
C1117      C1118   1.403   1_455  A
C1117      C1122   1.391       .  A
C1117      F1135   1.358       .  S
C1118      C1123   1.465       .  S
C1118      C1119   1.403       .  A
C1119      C1120   1.390       .  A
C1119      F1124   1.358       .  S
C1120      C1121   1.406       .  A
C1120      F1136   1.358       .  S
C1121      C1122   1.406   1_655  A
C1122      F1125   1.358       .  S
C1123      C1126   1.402       .  A
C1123      C1130   1.403   1_655  A
C1126      C1127   1.391       .  A
C1126      F1131   1.358       .  S
C1127      C1128   1.407       .  A
C1127      F1133   1.358       .  S
C1128      C1129   1.408   1_655  A
C1129      C1130   1.391       .  A
C1129      F1132   1.359       .  S
C1130      F1134   1.359       .  S
C1137      C1138   1.417       .  A
C1137      C1142   1.409       .  A
C1137      F1155   1.358       .  S
C1138      C1143   1.501       .  S
C1138      C1139   1.405       .  A
C1139      C1140   1.399       .  A
C1139      F1144   1.358       .  S
C1140      C1141   1.408       .  A
C1140      F1156   1.356       .  S
C1141      C1142   1.404       .  A
C1142      F1145   1.357       .  S
C1143      C1146   1.415       .  A
C1143      C1150   1.406       .  A
C1146      C1147   1.409       .  A
C1146      F1151   1.357       .  S
C1147      C1148   1.404       .  A
C1147      F1153   1.357       .  S
C1148      C1149   1.411       .  A
C1149      C1150   1.401       .  A
C1149      F1152   1.359       .  S
C1150      F1154   1.358       .  S
C1157      C1158   1.406       .  A
C1157      C1162   1.402       .  A
C1157      F1175   1.357       .  S
C1158      C1163   1.503       .  S
C1158      C1159   1.416       .  A
C1159      C1160   1.410       .  A
C1159      F1164   1.357       .  S
C1160      C1161   1.405       .  A
C1160      F1176   1.358       .  S
C1161      C1162   1.408       .  A
C1162      F1165   1.358       .  S
C1163      C1166   1.415       .  A
C1163      C1170   1.407       .  A
C1166      C1167   1.410       .  A
C1166      F1171   1.357       .  S
C1167      C1168   1.404       .  A
C1167      F1173   1.358       .  S
C1168      C1169   1.410       .  A
C1169      C1170   1.402       .  A
C1169      F1172   1.359       .  S
C1170      F1174   1.358       .  S
C1177      C1178   1.416       .  A
C1177      C1182   1.409       .  A
C1177      F1195   1.357       .  S
C1178      C1183   1.505       .  S
C1178      C1179   1.408       .  A
C1179      C1180   1.404       .  A
C1179      F1184   1.358       .  S
C1180      C1181   1.409       .  A
C1180      F1196   1.358       .  S
C1181      C1182   1.403       .  A
C1182      F1185   1.357       .  S
C1183      C1186   1.407       .  A
C1183      C1190   1.414       .  A
C1186      C1187   1.403       .  A
C1186      F1191   1.358       .  S
C1187      C1188   1.411       .  A
C1187      F1193   1.358       .  S
C1188      C1189   1.408       .  A
C1189      C1190   1.412       .  A
C1189      F1192   1.358       .  S
C1190      F1194   1.357       .  S
C1197      C1198   1.416       .  A
C1197      C1202   1.414       .  A
C1197      F1215   1.357       .  S
C1198      C1203   1.504       .  S
C1198      C1199   1.405       .  A
C1199      C1200   1.399       .  A
C1199      F1204   1.357       .  S
C1200      C1201   1.407       .  A
C1200      F1216   1.355       .  S
C1201      C1202   1.406       .  A
C1202      F1205   1.357       .  S
C1203      C1206   1.408       .  A
C1203      C1210   1.413       .  A
C1206      C1207   1.407       .  A
C1206      F1211   1.357       .  S
C1207      C1208   1.408       .  A
C1207      F1213   1.357       .  S
C1208      C1209   1.407       .  A
C1209      C1210   1.410       .  A
C1209      F1212   1.358       .  S
C1210      F1214   1.358       .  S
C1217      C1218   1.406       .  A
C1217      C1222   1.397       .  A
C1217      F1235   1.358       .  S
C1218      C1223   1.480       .  S
C1218      C1219   1.405       .  A
C1219      C1220   1.400       .  A
C1219      F1224   1.358       .  S
C1220      C1221   1.407       .  A
C1220      F1236   1.358       .  S
C1221      C1222   1.404       .  A
C1222      F1225   1.358       .  S
C1223      C1226   1.404       .  A
C1223      C1230   1.404       .  A
C1226      C1227   1.396       .  A
C1226      F1231   1.358       .  S
C1227      C1228   1.411       .  A
C1227      F1233   1.358       .  S
C1228      C1229   1.413       .  A
C1229      C1230   1.398       .  A
C1229      F1232   1.358       .  S
C1230      F1234   1.359       .  S
C1237      C1238   1.407       .  A
C1237      C1242   1.400       .  A
C1237      F1255   1.358       .  S
C1238      C1243   1.499       .  S
C1238      C1239   1.412       .  A
C1239      C1240   1.409       .  A
C1239      F1244   1.357       .  S
C1240      C1241   1.406       .  A
C1240      F1256   1.358       .  S
C1241      C1242   1.407       .  A
C1242      F1245   1.359       .  S
C1243      C1246   1.413       .  A
C1243      C1250   1.407       .  A
C1246      C1247   1.407       .  A
C1246      F1251   1.357       .  S
C1247      C1248   1.402       .  A
C1247      F1253   1.356       .  S
C1248      C1249   1.410       .  A
C1249      C1250   1.404       .  A
C1249      F1252   1.359       .  S
C1250      F1254   1.358       .  S
C1257      C1258   1.406       .  A
C1257      C1262   1.401       .  A
C1257      F1275   1.357       .  S
C1258      C1263   1.492       .  S
C1258      C1259   1.410       .  A
C1259      C1260   1.405       .  A
C1259      F1264   1.358       .  S
C1260      C1261   1.405       .  A
C1260      F1276   1.358       .  S
C1261      C1262   1.405       .  A
C1262      F1265   1.358       .  S
C1263      C1266   1.413       .  A
C1263      C1270   1.404       .  A
C1266      C1267   1.407       .  A
C1266      F1271   1.357       .  S
C1267      C1268   1.402       .  A
C1267      F1273   1.357       .  S
C1268      C1269   1.406       .  A
C1269      C1270   1.398       .  A
C1269      F1272   1.358       .  S
C1270      F1274   1.358       .  S
C1277      C1278   1.404       .  A
C1277      C1282   1.395       .  A
C1277      F1295   1.358       .  S
C1278      C1283   1.473       .  S
C1278      C1279   1.405       .  A
C1279      C1280   1.397       .  A
C1279      F1284   1.358       .  S
C1280      C1281   1.406       .  A
C1280      F1296   1.359       .  S
C1281      C1282   1.404       .  A
C1282      F1285   1.358       .  S
C1283      C1286   1.402       .  A
C1283      C1290   1.403       .  A
C1286      C1287   1.392       .  A
C1286      F1291   1.358       .  S
C1287      C1288   1.410       .  A
C1287      F1293   1.358       .  S
C1288      C1289   1.412       .  A
C1289      C1290   1.399       .  A
C1289      F1292   1.358       .  S
C1290      F1294   1.358       .  S
C1297      C1298   1.405       .  A
C1297      C1302   1.404       .  A
C1297      F1315   1.358       .  S
C1298      C1303   1.495       .  S
C1298      C1299   1.410       .  A
C1299      C1300   1.409       .  A
C1299      F1304   1.358       .  S
C1300      C1301   1.407       .  A
C1300      F1316   1.357       .  S
C1301      C1302   1.411       .  A
C1302      F1305   1.358       .  S
C1303      C1306   1.404       .  A
C1303      C1310   1.413       .  A
C1306      C1307   1.400       .  A
C1306      F1311   1.358       .  S
C1307      C1308   1.408       .  A
C1307      F1313   1.358       .  S
C1308      C1309   1.405       .  A
C1309      C1310   1.410       .  A
C1309      F1312   1.357       .  S
C1310      F1314   1.357       .  S
C1317      C1318   1.410       .  A
C1317      C1322   1.410       .  A
C1317      F1335   1.358       .  S
C1318      C1323   1.508       .  S
C1318      C1319   1.411       .  A
C1319      C1320   1.410       .  A
C1319      F1324   1.356       .  S
C1320      C1321   1.406       .  A
C1320      F1336   1.357       .  S
C1321      C1322   1.410       .  A
C1322      F1325   1.359       .  S
C1323      C1326   1.412       .  A
C1323      C1330   1.406       .  A
C1326      C1327   1.413       .  A
C1326      F1331   1.357       .  S
C1327      C1328   1.411       .  A
C1327      F1333   1.357       .  S
C1328      C1329   1.414       .  A
C1329      C1330   1.408       .  A
C1329      F1332   1.357       .  S
C1330      F1334   1.358       .  S
C1337      C1338   1.404       .  A
C1337      C1342   1.397       .  A
C1337      F1355   1.358       .  S
C1338      C1343   1.473       .  S
C1338      C1339   1.403       .  A
C1339      C1340   1.394       .  A
C1339      F1344   1.358       .  S
C1340      C1341   1.408       .  A
C1340      F1356   1.358       .  S
C1341      C1342   1.409       .  A
C1342      F1345   1.358       .  S
C1343      C1346   1.402       .  A
C1343      C1350   1.403       .  A
C1346      C1347   1.399       .  A
C1346      F1351   1.358       .  S
C1347      C1348   1.410       .  A
C1347      F1353   1.358       .  S
C1348      C1349   1.409       .  A
C1349      C1350   1.396       .  A
C1349      F1352   1.358       .  S
C1350      F1354   1.359       .  S
C1357      C1358   1.403       .  A
C1357      C1362   1.399       .  A
C1357      F1375   1.358       .  S
C1358      C1363   1.494       .  S
C1358      C1359   1.413       .  A
C1359      C1360   1.411       .  A
C1359      F1364   1.358       .  S
C1360      C1361   1.405       .  A
C1360      F1376   1.357       .  S
C1361      C1362   1.410       .  A
C1362      F1365   1.355       .  S
C1363      C1366   1.410       .  A
C1363      C1370   1.405       .  A
C1366      C1367   1.407       .  A
C1366      F1371   1.357       .  S
C1367      C1368   1.406       .  A
C1367      F1373   1.357       .  S
C1368      C1369   1.410       .  A
C1369      C1370   1.402       .  A
C1369      F1372   1.358       .  S
C1370      F1374   1.358       .  S
C1377      C1378   1.415       .  A
C1377      C1382   1.413       .  A
C1377      F1395   1.357       .  S
C1378      C1383   1.504       .  S
C1378      C1379   1.405       .  A
C1379      C1380   1.402       .  A
C1379      F1384   1.357       .  S
C1380      C1381   1.411       .  A
C1380      F1396   1.359       .  S
C1381      C1382   1.406       .  A
C1382      F1385   1.358       .  S
C1383      C1386   1.406       .  A
C1383      C1390   1.416       .  A
C1386      C1387   1.404       .  A
C1386      F1391   1.358       .  S
C1387      C1388   1.408       .  A
C1387      F1393   1.358       .  S
C1388      C1389   1.405       .  A
C1389      C1390   1.412       .  A
C1389      F1392   1.357       .  S
C1390      F1394   1.358       .  S
C1397      C1398   1.406       .  A
C1397      C1402   1.395       .  A
C1397      F1415   1.358       .  S
C1398      C1403   1.476       .  S
C1398      C1399   1.404       .  A
C1399      C1400   1.392       .  A
C1399      F1404   1.358       .  S
C1400      C1401   1.408       .  A
C1400      F1416   1.358       .  S
C1401      C1402   1.409       .  A
C1402      F1405   1.359       .  S
C1403      C1406   1.405       .  A
C1403      C1410   1.406       .  A
C1406      C1407   1.397       .  A
C1406      F1411   1.358       .  S
C1407      C1408   1.407       .  A
C1407      F1413   1.358       .  S
C1408      C1409   1.406       .  A
C1409      C1410   1.393       .  A
C1409      F1412   1.358       .  S
C1410      F1414   1.359       .  S
C1417      C1418   1.407       .  A
C1417      C1422   1.406       .  A
C1417      F1435   1.357       .  S
C1418      C1423   1.487       .  S
C1418      C1419   1.404       .  A
C1419      C1420   1.401       .  A
C1419      F1424   1.358       .  S
C1420      C1421   1.410       .  A
C1420      F1436   1.358       .  S
C1421      C1422   1.405       .  A
C1422      F1425   1.357       .  S
C1423      C1426   1.403       .  A
C1423      C1430   1.410       .  A
C1426      C1427   1.400       .  A
C1426      F1431   1.358       .  S
C1427      C1428   1.409       .  A
C1427      F1433   1.358       .  S
C1428      C1429   1.403       .  A
C1429      C1430   1.406       .  A
C1429      F1432   1.357       .  S
C1430      F1434   1.357       .  S
C1437      C1438   1.415       .  A
C1437      C1442   1.412       .  A
C1437      F1455   1.358       .  S
C1438      C1443   1.499       .  S
C1438      C1439   1.404       .  A
C1439      C1440   1.400       .  A
C1439      F1444   1.358       .  S
C1440      C1441   1.409       .  A
C1440      F1456   1.357       .  S
C1441      C1442   1.406       .  A
C1442      F1445   1.357       .  S
C1443      C1446   1.405       .  A
C1443      C1450   1.413       .  A
C1446      C1447   1.402       .  A
C1446      F1451   1.357       .  S
C1447      C1448   1.411       .  A
C1447      F1453   1.359       .  S
C1448      C1449   1.406       .  A
C1449      C1450   1.409       .  A
C1449      F1452   1.358       .  S
C1450      F1454   1.357       .  S
C1457      C1458   1.403       .  A
C1457      C1462   1.394       .  A
C1457      F1475   1.359       .  S
C1458      C1463   1.470       .  S
C1458      C1459   1.404       .  A
C1459      C1460   1.393       .  A
C1459      F1464   1.358       .  S
C1460      C1461   1.406       .  A
C1460      F1476   1.358       .  S
C1461      C1462   1.408       .  A
C1462      F1465   1.358       .  S
C1463      C1466   1.405       .  A
C1463      C1470   1.401       .  A
C1466      C1467   1.397       .  A
C1466      F1471   1.358       .  S
C1467      C1468   1.406       .  A
C1467      F1473   1.358       .  S
C1468      C1469   1.408       .  A
C1469      C1470   1.390       .  A
C1469      F1472   1.359       .  S
C1470      F1474   1.358       .  S
C1477      C1478   1.401       .  A
C1477      C1482   1.400       .  A
C1477      F1495   1.358       .  S
C1478      C1483   1.491       .  S
C1478      C1479   1.411       .  A
C1479      C1480   1.410       .  A
C1479      F1484   1.357       .  S
C1480      C1481   1.406       .  A
C1480      F1496   1.357       .  S
C1481      C1482   1.412       .  A
C1482      F1485   1.358       .  S
C1483      C1486   1.402       .  A
C1483      C1490   1.412       .  A
C1486      C1487   1.400       .  A
C1486      F1491   1.358       .  S
C1487      C1488   1.409       .  A
C1487      F1493   1.358       .  S
C1488      C1489   1.404       .  A
C1489      C1490   1.408       .  A
C1489      F1492   1.357       .  S
C1490      F1494   1.358       .  S
C1497      C1498   1.405       .  A
C1497      C1502   1.402       .  A
C1497      F1515   1.358       .  S
C1498      C1503   1.506       .  S
C1498      C1499   1.416       .  A
C1499      C1500   1.416       .  A
C1499      F1504   1.358       .  S
C1500      C1501   1.408       .  A
C1500      F1516   1.357       .  S
C1501      C1502   1.410       .  A
C1502      F1505   1.358       .  S
C1503      C1506   1.416       .  A
C1503      C1510   1.407       .  A
C1506      C1507   1.410       .  A
C1506      F1511   1.358       .  S
C1507      C1508   1.406       .  A
C1507      F1513   1.357       .  S
C1508      C1509   1.409       .  A
C1509      C1510   1.404       .  A
C1509      F1512   1.357       .  S
C1510      F1514   1.357       .  S
C1517      C1518   1.404       .  A
C1517      C1522   1.397       .  A
C1517      F1535   1.358       .  S
C1518      C1523   1.475       .  S
C1518      C1519   1.405       .  A
C1519      C1520   1.398       .  A
C1519      F1524   1.358       .  S
C1520      C1521   1.406       .  A
C1520      F1536   1.358       .  S
C1521      C1522   1.406       .  A
C1522      F1525   1.359       .  S
C1523      C1526   1.402       .  A
C1523      C1530   1.402       .  A
C1526      C1527   1.400       .  A
C1526      F1531   1.359       .  S
C1527      C1528   1.415       .  A
C1527      F1533   1.358       .  S
C1528      C1529   1.408       .  A
C1529      C1530   1.394       .  A
C1529      F1532   1.357       .  S
C1530      F1534   1.357       .  S
C1537      C1538   1.409       .  A
C1537      C1542   1.407       .  A
C1537      F1555   1.357       .  S
C1538      C1543   1.489       .  S
C1538      C1539   1.402       .  A
C1539      C1540   1.400       .  A
C1539      F1544   1.358       .  S
C1540      C1541   1.411       .  A
C1540      F1556   1.357       .  S
C1541      C1542   1.405       .  A
C1542      F1545   1.356       .  S
C1543      C1546   1.406       .  A
C1543      C1550   1.406       .  A
C1546      C1547   1.405       .  A
C1546      F1551   1.358       .  S
C1547      C1548   1.408       .  A
C1547      F1553   1.357       .  S
C1548      C1549   1.405       .  A
C1549      C1550   1.403       .  A
C1549      F1552   1.357       .  S
C1550      F1554   1.357       .  S
C1557      C1558   1.405       .  A
C1557      C1562   1.398       .  A
C1557      F1575   1.358       .  S
C1558      C1563   1.495       .  S
C1558      C1559   1.415       .  A
C1559      C1560   1.407       .  A
C1559      F1564   1.358       .  S
C1560      C1561   1.403       .  A
C1560      F1576   1.357       .  S
C1561      C1562   1.408       .  A
C1562      F1565   1.357       .  S
C1563      C1566   1.413       .  A
C1563      C1570   1.406       .  A
C1566      C1567   1.405       .  A
C1566      F1571   1.358       .  S
C1567      C1568   1.404       .  A
C1567      F1573   1.357       .  S
C1568      C1569   1.409       .  A
C1569      C1570   1.399       .  A
C1569      F1572   1.359       .  S
C1570      F1574   1.358       .  S
C1577      C1578   1.400       .  A
C1577      C1582   1.393       .  A
C1577      F1595   1.358       .  S
C1578      C1583   1.463       .  S
C1578      C1579   1.400       .  A
C1579      C1580   1.396       .  A
C1579      F1584   1.358       .  S
C1580      C1581   1.411       .  A
C1580      F1596   1.358       .  S
C1581      C1582   1.405       .  A
C1582      F1585   1.357       .  S
C1583      C1586   1.400       .  A
C1583      C1590   1.399       .  A
C1586      C1587   1.397       .  A
C1586      F1591   1.358       .  S
C1587      C1588   1.411       .  A
C1587      F1593   1.358       .  S
C1588      C1589   1.408       .  A
C1589      C1590   1.392       .  A
C1589      F1592   1.358       .  S
C1590      F1594   1.358       .  S
C1597      C1598   1.408       .  A
C1597      C1602   1.407       .  A
C1597      F1615   1.357       .  S
C1598      C1603   1.486       .  S
C1598      C1599   1.403       .  A
C1599      C1600   1.400       .  A
C1599      F1604   1.358       .  S
C1600      C1601   1.410       .  A
C1600      F1616   1.359       .  S
C1601      C1602   1.404       .  A
C1602      F1605   1.357       .  S
C1603      C1606   1.401       .  A
C1603      C1610   1.410       .  A
C1606      C1607   1.398       .  A
C1606      F1611   1.358       .  S
C1607      C1608   1.411       .  A
C1607      F1613   1.358       .  S
C1608      C1609   1.406       .  A
C1609      C1610   1.409       .  A
C1609      F1612   1.357       .  S
C1610      F1614   1.357       .  S
C1617      C1618   1.412       .  A
C1617      C1622   1.408       .  A
C1617      F1635   1.358       .  S
C1618      C1623   1.496       .  S
C1618      C1619   1.407       .  A
C1619      C1620   1.399       .  A
C1619      F1624   1.358       .  S
C1620      C1621   1.406       .  A
C1620      F1636   1.358       .  S
C1621      C1622   1.407       .  A
C1622      F1625   1.358       .  S
C1623      C1626   1.406       .  A
C1623      C1630   1.414       .  A
C1626      C1627   1.400       .  A
C1626      F1631   1.358       .  S
C1627      C1628   1.410       .  A
C1627      F1633   1.357       .  S
C1628      C1629   1.400       .  A
C1629      C1630   1.405       .  A
C1629      F1632   1.356       .  S
C1630      F1634   1.357       .  S
C1637      C1638   1.404       .  A
C1637      C1642   1.398       .  A
C1637      F1655   1.358       .  S
C1638      C1643   1.476       .  S
C1638      C1639   1.401       .  A
C1639      C1640   1.395       .  A
C1639      F1644   1.359       .  S
C1640      C1641   1.412       .  A
C1640      F1656   1.358       .  S
C1641      C1642   1.411       .  A
C1642      F1645   1.358       .  S
C1643      C1646   1.406       .  A
C1643      C1650   1.402       .  A
C1646      C1647   1.399       .  A
C1646      F1651   1.358       .  S
C1647      C1648   1.406       .  A
C1647      F1653   1.358       .  S
C1648      C1649   1.410       .  A
C1649      C1650   1.391       .  A
C1649      F1652   1.358       .  S
C1650      F1654   1.358       .  S
C1657      C1658   1.418       .  A
C1657      C1662   1.411       .  A
C1657      F1675   1.358       .  S
C1658      C1663   1.508       .  S
C1658      C1659   1.407       .  A
C1659      C1660   1.403       .  A
C1659      F1664   1.357       .  S
C1660      C1661   1.407       .  A
C1660      F1676   1.358       .  S
C1661      C1662   1.403       .  A
C1662      F1665   1.358       .  S
C1663      C1666   1.405       .  A
C1663      C1670   1.417       .  A
C1666      C1667   1.401       .  A
C1666      F1671   1.358       .  S
C1667      C1668   1.413       .  A
C1667      F1673   1.359       .  S
C1668      C1669   1.407       .  A
C1669      C1670   1.415       .  A
C1669      F1672   1.357       .  S
C1670      F1674   1.357       .  S
C1677      C1678   1.412       .  A
C1677      C1682   1.415       .  A
C1677      F1695   1.358       .  S
C1678      C1683   1.499       .  S
C1678      C1679   1.403       .  A
C1679      C1680   1.403       .  A
C1679      F1684   1.357       .  S
C1680      C1681   1.409       .  A
C1680      F1696   1.357       .  S
C1681      C1682   1.410       .  A
C1682      F1685   1.358       .  S
C1683      C1686   1.403       .  A
C1683      C1690   1.411       .  A
C1686      C1687   1.405       .  A
C1686      F1691   1.357       .  S
C1687      C1688   1.411       .  A
C1687      F1693   1.358       .  S
C1688      C1689   1.410       .  A
C1689      C1690   1.413       .  A
C1689      F1692   1.357       .  S
C1690      F1694   1.357       .  S
C1697      C1698   1.402       .  A
C1697      C1702   1.391       .  A
C1697      F1715   1.359       .  S
C1698      C1703   1.477       .  S
C1698      C1699   1.407       .  A
C1699      C1700   1.401       .  A
C1699      F1704   1.358       .  S
C1700      C1701   1.410       .  A
C1700      F1716   1.358       .  S
C1701      C1702   1.410       .  A
C1702      F1705   1.358       .  S
C1703      C1706   1.405       .  A
C1703      C1710   1.405       .  A
C1706      C1707   1.399       .  A
C1706      F1711   1.358       .  S
C1707      C1708   1.408       .  A
C1707      F1713   1.358       .  S
C1708      C1709   1.405       .  A
C1709      C1710   1.393       .  A
C1709      F1712   1.358       .  S
C1710      F1714   1.358       .  S
