geometry optimzed in LAMMPS
_audit_creation_date              2020-12-01 
_audit_creation_method            'lammps2cif' 
_symmetry_space_group_name_H-M    'P1' 
_symmetry_Int_Tables_number       1 
_symmetry_cell_setting            triclinic 
loop_ 
_symmetry_equiv_pos_as_xyz 
  x,y,z 
_cell_length_a                    38.82267821 
_cell_length_b                    38.82265163005412 
_cell_length_c                    38.82267102027164 
_cell_angle_alpha                 90.00015676322661 
_cell_angle_beta                  90.00014616650154 
_cell_angle_gamma                 89.99990433645638 
loop_ 
_atom_site_label 
_atom_site_type_symbol 
_atom_site_fract_x 
_atom_site_fract_y 
_atom_site_fract_z 
_atom_site_charge 
C1          C  0.64582698  0.68867877  0.81130206     0.83600
N2          N  0.66018739  0.70301089  0.83978541    -0.74700
C3          C  0.68867130  0.68868055  0.85414586     0.86000
N4          N  0.70299796  0.66019439  0.83979002    -0.74700
C5          C  0.68866803  0.64583160  0.81130656     0.86100
N6          N  0.66018398  0.66019260  0.79697654    -0.76400
C7          C  0.64583361  0.85075606  0.64921381     0.83600
N8          N  0.66018867  0.83642354  0.62073304    -0.74700
C9          C  0.68867706  0.85075167  0.60636927     0.86000
N10         N  0.70300370  0.87923621  0.62072911    -0.74700
C11         C  0.68867864  0.89359902  0.64921033     0.86100
N12         N  0.66019042  0.87923996  0.66354308    -0.76400
C13         C  0.85074563  0.68866490  0.60637244     0.83600
N14         N  0.87922959  0.70299031  0.62073276    -0.74700
C15         C  0.89358958  0.68866641  0.64921690     0.86000
N16         N  0.87922635  0.66018053  0.66355036    -0.74700
C17         C  0.85074293  0.64582503  0.64922057     0.86100
N18         N  0.83641336  0.66017898  0.62073691    -0.76400
C19         C  0.85075400  0.85076138  0.85413784     0.83600
N20         N  0.87923389  0.83642787  0.83978189    -0.74700
C21         C  0.89359629  0.85075403  0.81129212     0.86000
N22         N  0.87923606  0.87923802  0.79696442    -0.74700
C23         C  0.85075574  0.89360184  0.81129031     0.86100
N24         N  0.83642431  0.87924474  0.83977991    -0.76400
O25         O  0.81397590  0.77437268  0.94560105    -0.68400
O26         O  0.76506683  0.72546218  0.01491544    -0.68600
O27         O  0.76506702  0.72546278  0.94560062    -0.68500
O28         O  0.81397578  0.77437206  0.01491610    -0.68500
O29         O  0.77435886  0.81398833  0.01491643    -0.68500
O30         O  0.72545005  0.76507900  0.94560083    -0.68500
O31         O  0.72544991  0.76507834  0.01491573    -0.68400
O32         O  0.77435905  0.81398893  0.94560126    -0.68600
V33         V  0.78875037  0.75068850  0.98025830     1.35200
V34         V  0.75067554  0.78876267  0.98025855     1.35200
C35         C  0.80234426  0.80235779  0.93377699     0.80800
C36         C  0.73708146  0.73709306  0.02673934     0.80900
C37         C  0.73708127  0.73709351  0.93377629     0.80700
C38         C  0.80234438  0.80235727  0.02674107     0.80700
O39         O  0.05436482  0.76505501  0.68599531    -0.68400
O40         O  0.98504979  0.81396685  0.73490142    -0.68600
O41         O  0.05436436  0.81396536  0.73490357    -0.68500
O42         O  0.98505001  0.76505634  0.68599316    -0.68500
O43         O  0.98504791  0.72544087  0.72561076    -0.68500
O44         O  0.05436282  0.77434949  0.77452079    -0.68500
O45         O  0.98504817  0.77435142  0.77451909    -0.68400
O46         O  0.05436280  0.72543906  0.72561249    -0.68600
V47         V  0.01970721  0.78873982  0.71121939     1.35200
V48         V  0.01970546  0.75066618  0.74929470     1.35200
C49         C  0.06618922  0.73706911  0.69762681     0.80800
C50         C  0.97322414  0.80233735  0.76288749     0.80900
C51         C  0.06618837  0.80233497  0.76288988     0.80700
C52         C  0.97322398  0.73707125  0.69762445     0.80700
O53         O  0.77436178  0.98505842  0.77451296    -0.68400
O54         O  0.72545013  0.05437259  0.72560517    -0.68600
O55         O  0.72545274  0.98505777  0.72560332    -0.68500
O56         O  0.77435922  0.05437319  0.77451477    -0.68500
O57         O  0.81397614  0.05437527  0.73489863    -0.68500
O58         O  0.76506927  0.98506024  0.68598680    -0.68500
O59         O  0.76506695  0.05437521  0.68598894    -0.68400
O60         O  0.81397839  0.98506037  0.73489654    -0.68600
V61         V  0.75067701  0.01971555  0.74928799     1.35200
V62         V  0.78875165  0.01971775  0.71121373     1.35200
C63         C  0.80234778  0.97323469  0.76288196     0.80800
C64         C  0.73708072  0.06619876  0.69761987     0.80900
C65         C  0.73708404  0.97323405  0.69761739     0.80700
C66         C  0.80234476  0.06619906  0.76288453     0.80700
C67         C  0.68866621  0.64583347  0.14921331     0.83600
N68         N  0.66018541  0.66019536  0.16353988    -0.74700
C69         C  0.64582552  0.68868118  0.14921672     0.86000
N70         N  0.66018914  0.70301234  0.12072924    -0.74700
C71         C  0.68866945  0.68868083  0.10637267     0.86100
N72         N  0.70299882  0.66019565  0.12072597    -0.76400
C73         C  0.64581914  0.18867343  0.64922538     0.83600
N74         N  0.66018410  0.16019018  0.66354770    -0.74700
C75         C  0.68866555  0.14583143  0.64921981     0.86000
N76         N  0.70299421  0.16019509  0.62073045    -0.74700
C77         C  0.68865980  0.18867762  0.60637802     0.86100
N78         N  0.66017894  0.20300607  0.62073586    -0.76400
C79         C  0.14582486  0.68866484  0.64922449     0.83600
N80         N  0.16018712  0.70299561  0.62073589    -0.74700
C81         C  0.18866982  0.68866890  0.60638141     0.86000
N82         N  0.20300502  0.66018719  0.62073761    -0.74700
C83         C  0.18867393  0.64582552  0.64922596     0.86100
N84         N  0.16019076  0.66018242  0.66355052    -0.76400
C85         C  0.85074672  0.68866695  0.35413910     0.83600
N86         N  0.83642084  0.66018533  0.33977406    -0.74700
C87         C  0.85074521  0.64582569  0.31129194     0.86000
N88         N  0.87923558  0.66018648  0.29696144    -0.74700
C89         C  0.89359155  0.68866732  0.31129595     0.86100
N90         N  0.87923725  0.70299671  0.33977743    -0.76400
O91         O  0.98505402  0.76506205  0.27452187    -0.68400
O92         O  0.05436859  0.81397380  0.22561401    -0.68600
O93         O  0.98505372  0.81397266  0.22561371    -0.68500
O94         O  0.05436907  0.76506337  0.27452239    -0.68500
O95         O  0.05437001  0.72544757  0.23490495    -0.68500
O96         O  0.98505454  0.77435702  0.18599611    -0.68500
O97         O  0.05436944  0.77435806  0.18599660    -0.68400
O98         O  0.98505492  0.72544644  0.23490437    -0.68600
V99         V  0.01971138  0.78874695  0.24929694     1.35200
V100        V  0.01971223  0.75067328  0.21122156     1.35200
C101        C  0.97323057  0.73707713  0.26288951     0.80800
C102        C  0.06619290  0.80234326  0.19762858     0.80900
C103        C  0.97322956  0.80234215  0.19762777     0.80700
C104        C  0.06619416  0.73707832  0.26289083     0.80700
C105        C  0.85075269  0.85076092  0.10637818     0.83600
N106        N  0.87923675  0.83642810  0.12073624    -0.74700
C107        C  0.89359677  0.85075538  0.14922225     0.86000
N108        N  0.87923961  0.87923874  0.16355275    -0.74700
C109        C  0.85075538  0.89360217  0.14922522     0.86100
N110        N  0.83642584  0.87924428  0.12073903    -0.76400
C111        C  0.68867419  0.85075499  0.35414492     0.83600
N112        N  0.66019090  0.83643067  0.33978368    -0.74700
C113        C  0.64582879  0.85075792  0.31130194     0.86000
N114        N  0.66019064  0.87924692  0.29697245    -0.74700
C115        C  0.68867338  0.89360138  0.31130329     0.86100
N116        N  0.70300506  0.87924399  0.33978447    -0.76400
O117        O  0.72545432  0.98506163  0.23490976    -0.68400
O118        O  0.77436630  0.05437598  0.18600181    -0.68600
O119        O  0.77436566  0.98506104  0.18600246    -0.68500
O120        O  0.72545464  0.05437650  0.23490885    -0.68500
O121        O  0.76506941  0.05437691  0.27452732    -0.68500
O122        O  0.81398063  0.98506107  0.22562074    -0.68500
O123        O  0.81398109  0.05437616  0.22562010    -0.68400
O124        O  0.76506913  0.98506191  0.27452805    -0.68600
V125        V  0.75068126  0.01971880  0.21122679     1.35200
V126        V  0.78875409  0.01971901  0.24930299     1.35200
C127        C  0.73708442  0.97323788  0.26289558     0.80800
C128        C  0.80235099  0.06619995  0.19763436     0.80900
C129        C  0.80235074  0.97323606  0.19763463     0.80700
C130        C  0.73708419  0.06620141  0.26289498     0.80700
C131        C  0.39359518  0.85075790  0.64922035     0.83600
N132        N  0.37923321  0.87924025  0.66354965    -0.74700
C133        C  0.35074639  0.89359729  0.64922140     0.86000
N134        N  0.33641860  0.87923561  0.62073692    -0.74700
C135        C  0.35075012  0.85075324  0.60637722     0.86100
N136        N  0.37923685  0.83642672  0.62073597    -0.76400
O137        O  0.26504991  0.05436846  0.77452002    -0.68400
O138        O  0.31396184  0.98505291  0.72561431    -0.68600
O139        O  0.31396133  0.05436776  0.72561286    -0.68500
O140        O  0.26505035  0.98505352  0.77452152    -0.68500
O141        O  0.22543546  0.98505228  0.73490330    -0.68500
O142        O  0.27434660  0.05436674  0.68599449    -0.68500
O143        O  0.27434696  0.98505174  0.68599594    -0.68400
O144        O  0.22543498  0.05436739  0.73490170    -0.68600
V145        V  0.28873481  0.01971063  0.74929611     1.35200
V146        V  0.25066196  0.01970955  0.71121993     1.35200
C147        C  0.23706469  0.06619294  0.76288762     0.80800
C148        C  0.30233232  0.97322763  0.69762828     0.80900
C149        C  0.30233120  0.06619114  0.69762692     0.80700
C150        C  0.23706580  0.97322888  0.76288923     0.80700
C151        C  0.18865915  0.89359158  0.81129922     0.83600
N152        N  0.16017784  0.87923338  0.79696884    -0.74700
C153        C  0.14581833  0.85074438  0.81129959     0.86000
N154        N  0.16018087  0.83641983  0.83978278    -0.74700
C155        C  0.18866272  0.85074793  0.85414358     0.86100
N156        N  0.20299126  0.87923690  0.83978186    -0.76400
C157        C  0.35075372  0.68867849  0.85414612     0.83600
N158        N  0.33643059  0.66019378  0.83978512    -0.74700
C159        C  0.35075733  0.64583300  0.81130321     0.86000
N160        N  0.37924472  0.66019626  0.79697187    -0.74700
C161        C  0.39359797  0.68868038  0.81130242     0.86100
N162        N  0.37924119  0.70301076  0.83978381    -0.76400
O163        O  0.22544779  0.77436148  0.01491652    -0.68400
O164        O  0.27435959  0.72545363  0.94560243    -0.68600
O165        O  0.27436015  0.72545515  0.01491715    -0.68500
O166        O  0.22544719  0.77435994  0.94560173    -0.68500
O167        O  0.26506106  0.81397917  0.94560101    -0.68500
O168        O  0.31397445  0.76507396  0.01491596    -0.68500
O169        O  0.31397349  0.76507287  0.94560122    -0.68400
O170        O  0.26506210  0.81398030  0.01491579    -0.68600
V171        V  0.25067467  0.75067864  0.98025943     1.35200
V172        V  0.28874678  0.78875550  0.98025851     1.35200
C173        C  0.23707703  0.80234812  0.02674112     0.80800
C174        C  0.30234455  0.73708599  0.93377696     0.80900
C175        C  0.30234540  0.73708771  0.02674150     0.80700
C176        C  0.23707603  0.80234633  0.93377641     0.80700
C177        C  0.85074025  0.35075941  0.60637273     0.83600
N178        N  0.87922647  0.33643059  0.62072977    -0.74700
C179        C  0.89358673  0.35075932  0.64921444     0.86000
N180        N  0.87922674  0.37924190  0.66354567    -0.74700
C181        C  0.85074047  0.39360120  0.64921915     0.86100
N182        N  0.83641071  0.37924201  0.62073440    -0.76400
O183        O  0.98504828  0.26507420  0.77451381    -0.68400
O184        O  0.05436312  0.31398462  0.72560533    -0.68600
O185        O  0.98504804  0.31398390  0.72560473    -0.68500
O186        O  0.05436312  0.26507484  0.77451435    -0.68500
O187        O  0.05436377  0.22545855  0.73489739    -0.68500
O188        O  0.98504873  0.27436751  0.68598786    -0.68500
O189        O  0.05436386  0.27436841  0.68598842    -0.68400
O190        O  0.98504892  0.22545785  0.73489703    -0.68600
V191        V  0.01970564  0.28875840  0.74928847     1.35200
V192        V  0.01970629  0.25068415  0.71121367     1.35200
C193        C  0.97322487  0.23708888  0.76288227     0.80800
C194        C  0.06618761  0.30235342  0.69762040     0.80900
C195        C  0.97322363  0.30235279  0.69761907     0.80700
C196        C  0.06618782  0.23708939  0.76288324     0.80700
C197        C  0.85075239  0.18867260  0.85414358     0.83600
N198        N  0.87923954  0.20300442  0.83977899    -0.74700
C199        C  0.89359240  0.18867619  0.81129561     0.86000
N200        N  0.87923666  0.16019379  0.79696332    -0.74700
C201        C  0.85074967  0.14583098  0.81129674     0.86100
N202        N  0.83642670  0.16018949  0.83978067    -0.76400
C203        C  0.68866548  0.39358989  0.81130971     0.83600
N204        N  0.66018299  0.37923542  0.79697946    -0.74700
C205        C  0.64582176  0.35074555  0.81130973     0.86000
N206        N  0.66018523  0.33641928  0.83979091    -0.74700
C207        C  0.68866837  0.35074372  0.85415154     0.86100
N208        N  0.70299849  0.37923357  0.83979022    -0.76400
O209        O  0.77436589  0.22544516  0.94560594    -0.68400
O210        O  0.72545565  0.27435283  0.01492095    -0.68600
O211        O  0.72545385  0.27435171  0.94560636    -0.68500
O212        O  0.77436786  0.22544642  0.01492079    -0.68500
O213        O  0.81398191  0.26506549  0.01491954    -0.68500
O214        O  0.76506833  0.31397036  0.94560465    -0.68500
O215        O  0.76506967  0.31397196  0.01491929    -0.68400
O216        O  0.81398041  0.26506379  0.94560463    -0.68600
V217        V  0.75068185  0.25067008  0.98026349     1.35200
V218        V  0.78875413  0.28874679  0.98026207     1.35200
C219        C  0.80235082  0.23707723  0.93377994     0.80800
C220        C  0.73708461  0.30233985  0.02674506     0.80900
C221        C  0.73708278  0.30233803  0.93378070     0.80700
C222        C  0.80235301  0.23707923  0.02674527     0.80700
C223        C  0.68866471  0.39359420  0.14921478     0.83600
N224        N  0.66017542  0.37923193  0.16354431    -0.74700
C225        C  0.64582342  0.35074747  0.14921204     0.86000
N226        N  0.66018230  0.33641687  0.12073300    -0.74700
C227        C  0.68867180  0.35074813  0.10637244     0.86100
N228        N  0.70299362  0.37923329  0.12073521    -0.76400
C229        C  0.39360001  0.68868213  0.14921862     0.83600
N230        N  0.37923844  0.70300809  0.12073576    -0.74700
C231        C  0.35075646  0.68868324  0.10637375     0.86000
N232        N  0.33642509  0.66019397  0.12073424    -0.74700
C233        C  0.35075613  0.64583793  0.14921641     0.86100
N234        N  0.37923754  0.66019277  0.16354808    -0.76400
C235        C  0.68866034  0.18867729  0.35414189     0.83600
N236        N  0.66017479  0.20300350  0.33978013    -0.74700
C237        C  0.64581910  0.18867171  0.31129494     0.86000
N238        N  0.66018221  0.16018899  0.29696744    -0.74700
C239        C  0.68866785  0.14583227  0.31129870     0.86100
N240        N  0.70299301  0.16019454  0.33978396    -0.76400
C241        C  0.35074862  0.18867530  0.35414993     0.83600
N242        N  0.33642093  0.16019094  0.33979142    -0.74700
C243        C  0.35074246  0.14582793  0.31130883     0.86000
N244        N  0.37922955  0.16018741  0.29697273    -0.74700
C245        C  0.39358730  0.18867105  0.31130063     0.86100
N246        N  0.37923587  0.20300376  0.33978271    -0.76400
C247        C  0.18867153  0.89359831  0.14921931     0.83600
N248        N  0.16018372  0.87923686  0.16355046    -0.74700
C249        C  0.14582755  0.85075432  0.14921868     0.86000
N250        N  0.16018292  0.83642470  0.12073617    -0.74700
C251        C  0.18867084  0.85075522  0.10637399     0.86100
N252        N  0.20299688  0.87923837  0.12073632    -0.76400
C253        C  0.39359664  0.85075400  0.31130197     0.83600
N254        N  0.37923407  0.87923670  0.29697708    -0.74700
C255        C  0.35075072  0.89359649  0.31130196     0.86000
N256        N  0.33641956  0.87923358  0.33978998    -0.74700
C257        C  0.35075160  0.85075151  0.35414495     0.86100
N258        N  0.37923437  0.83642208  0.33979006    -0.76400
O259        O  0.31396711  0.05437043  0.23491683    -0.68400
O260        O  0.26506165  0.98505597  0.18600310    -0.68600
O261        O  0.26505881  0.05437074  0.18600646    -0.68500
O262        O  0.31397000  0.98505563  0.23491350    -0.68500
O263        O  0.27435261  0.98505220  0.27452917    -0.68500
O264        O  0.22544154  0.05436758  0.22562225    -0.68500
O265        O  0.22544423  0.98505276  0.22561874    -0.68400
O266        O  0.27434992  0.05436713  0.27453269    -0.68600
V267        V  0.28874335  0.01971312  0.21123102     1.35200
V268        V  0.25066813  0.01970996  0.24930471     1.35200
C269        C  0.30233536  0.06619362  0.26290281     0.80800
C270        C  0.23707605  0.97322968  0.19763270     0.80900
C271        C  0.23707244  0.06619408  0.19763721     0.80700
C272        C  0.30233908  0.97322891  0.26289847     0.80700
C273        C  0.39359234  0.18866905  0.64922821     0.83600
N274        N  0.37923337  0.20299689  0.62074477    -0.74700
C275        C  0.35075133  0.18867350  0.60638084     0.86000
N276        N  0.33641787  0.16018499  0.62073948    -0.74700
C277        C  0.35074634  0.14582699  0.64922231     0.86100
N278        N  0.37922789  0.16018047  0.66355589    -0.76400
C279        C  0.14582917  0.35076191  0.64921768     0.83600
N280        N  0.16018434  0.37924300  0.66355282    -0.74700
C281        C  0.18867567  0.39360340  0.64922504     0.86000
N282        N  0.20300297  0.37924337  0.62074412    -0.74700
C283        C  0.18867797  0.35076157  0.60637849     0.86100
N284        N  0.16018650  0.33643214  0.62073735    -0.76400
C285        C  0.14583228  0.35076036  0.31131128     0.83600
N286        N  0.16019370  0.37924684  0.29697698    -0.74700
C287        C  0.18867805  0.39360261  0.31130436     0.86000
N288        N  0.20301062  0.37924856  0.33978650    -0.74700
C289        C  0.18868018  0.35076202  0.35415179     0.86100
N290        N  0.16019526  0.33643636  0.33979390    -0.76400
C291        C  0.85076166  0.14583662  0.14922621     0.83600
N292        N  0.83643214  0.16019024  0.12074245    -0.74700
C293        C  0.85076242  0.18867931  0.10638090     0.86000
N294        N  0.87924304  0.20300689  0.12074435    -0.74700
C295        C  0.89360299  0.18868332  0.14922876     0.86100
N296        N  0.87924167  0.16019421  0.16355922    -0.76400
C297        C  0.89359093  0.35076409  0.31130273     0.83600
N298        N  0.87922679  0.33643264  0.33979038    -0.74700
C299        C  0.85074192  0.35076121  0.35414173     0.86000
N300        N  0.83640945  0.37924156  0.33978421    -0.74700
C301        C  0.85074244  0.39360402  0.31129658     0.86100
N302        N  0.87922793  0.37924508  0.29697521    -0.76400
O303        O  0.98505634  0.31398831  0.23492006    -0.68400
O304        O  0.05437080  0.26507581  0.18601347    -0.68600
O305        O  0.98505627  0.26507795  0.18601172    -0.68500
O306        O  0.05437130  0.31398622  0.23492180    -0.68500
O307        O  0.05436911  0.27437072  0.27453938    -0.68500
O308        O  0.98505452  0.22546202  0.22562888    -0.68500
O309        O  0.05436908  0.22546026  0.22563103    -0.68400
O310        O  0.98505411  0.27437239  0.27453724    -0.68600
V311        V  0.01971365  0.28876110  0.21123788     1.35200
V312        V  0.01971175  0.25068742  0.24931314     1.35200
C313        C  0.97322987  0.30235813  0.26290553     0.80800
C314        C  0.06619466  0.23708978  0.19764491     0.80900
C315        C  0.97323066  0.23709240  0.19764248     0.80700
C316        C  0.06619536  0.30235570  0.26290800     0.80700
C317        C  0.18867456  0.64582848  0.31129969     0.83600
N318        N  0.16018918  0.66018874  0.29697055    -0.74700
C319        C  0.14582867  0.68867078  0.31129971     0.86000
N320        N  0.16018583  0.70300055  0.33978585    -0.74700
C321        C  0.18867102  0.68867086  0.35414553     0.86100
N322        N  0.20300121  0.66018882  0.33978602    -0.76400
C323        C  0.18865851  0.18866810  0.10638600     0.83600
N324        N  0.20299012  0.16018545  0.12074141    -0.74700
C325        C  0.18866166  0.14582688  0.14923280     0.86000
N326        N  0.16018233  0.16019056  0.16356101    -0.74700
C327        C  0.14582030  0.18867389  0.14923576     0.86100
N328        N  0.16017976  0.20300142  0.12074427    -0.76400
C329        C  0.35074698  0.39359795  0.14921324     0.83600
N330        N  0.37923222  0.37923644  0.16354019    -0.74700
C331        C  0.39358763  0.35075039  0.14921214     0.86000
N332        N  0.37922430  0.33641957  0.12072992    -0.74700
C333        C  0.35073914  0.35075042  0.10637250     0.86100
N334        N  0.33641410  0.37923650  0.12073089    -0.76400
C335        C  0.18865859  0.18866930  0.85414051     0.83600
N336        N  0.20298578  0.16018548  0.83978079    -0.74700
C337        C  0.18865828  0.14582770  0.81129384     0.86000
N338        N  0.16017529  0.16019157  0.79696381    -0.74700
C339        C  0.14581779  0.18867540  0.81129315     0.86100
N340        N  0.16017575  0.20300257  0.83977994    -0.76400
C341        C  0.39359174  0.35074671  0.81131010     0.83600
N342        N  0.37923245  0.37923251  0.79698557    -0.74700
C343        C  0.35075122  0.39359462  0.81130832     0.86000
N344        N  0.33641491  0.37923327  0.83979530    -0.74700
C345        C  0.35074357  0.35074827  0.85414992     0.86100
N346        N  0.37922427  0.33641642  0.83979732    -0.76400
O347        O  0.27433928  0.31396850  0.01491963    -0.68400
O348        O  0.22543154  0.26505803  0.94560427    -0.68600
O349        O  0.22543088  0.26505800  0.01491947    -0.68500
O350        O  0.27434014  0.31396834  0.94560478    -0.68500
O351        O  0.31395733  0.27435247  0.94560531    -0.68500
O352        O  0.26504817  0.22544222  0.01491985    -0.68500
O353        O  0.26504881  0.22544211  0.94560465    -0.68400
O354        O  0.31395660  0.27435262  0.01492008    -0.68600
V355        V  0.25065644  0.28874213  0.98026205     1.35200
V356        V  0.28873161  0.25066832  0.98026248     1.35200
C357        C  0.30232515  0.30233821  0.02674421     0.80800
C358        C  0.23706333  0.23707286  0.93377954     0.80900
C359        C  0.23706292  0.23707327  0.02674387     0.80700
C360        C  0.30232570  0.30233751  0.93378151     0.80700
O361        O  0.31397899  0.48506003  0.22560689    -0.68400
O362        O  0.26507137  0.55437429  0.27451906    -0.68600
O363        O  0.26507153  0.48505949  0.27451812    -0.68500
O364        O  0.31397901  0.55437514  0.22560796    -0.68500
O365        O  0.27436116  0.55437566  0.18599273    -0.68500
O366        O  0.22545337  0.48505991  0.23490317    -0.68500
O367        O  0.22545340  0.55437477  0.23490376    -0.68400
O368        O  0.27436079  0.48506052  0.18599184    -0.68600
V369        V  0.28875418  0.51971726  0.24929197     1.35200
V370        V  0.25067826  0.51971772  0.21121885     1.35200
C371        C  0.30234678  0.47323543  0.19762164     0.80800
C372        C  0.23708508  0.56619907  0.26288938     0.80900
C373        C  0.23708580  0.47323569  0.26288787     0.80700
C374        C  0.30234660  0.56619959  0.19762348     0.80700
O375        O  0.55435987  0.22544356  0.23489712    -0.68400
O376        O  0.48504531  0.27435311  0.18598707    -0.68600
O377        O  0.55436043  0.27435234  0.18598696    -0.68500
O378        O  0.48504479  0.22544436  0.23489734    -0.68500
O379        O  0.48504523  0.26506184  0.27451300    -0.68500
O380        O  0.55436116  0.31396924  0.22560318    -0.68500
O381        O  0.48504627  0.31397048  0.22560294    -0.68400
O382        O  0.55436004  0.26506067  0.27451325    -0.68600
V383        V  0.51970259  0.25066937  0.21121311     1.35200
V384        V  0.51970314  0.28874449  0.24928703     1.35200
C385        C  0.56618442  0.23707489  0.26288260     0.80800
C386        C  0.47322136  0.30233916  0.19761764     0.80900
C387        C  0.56618496  0.30233734  0.19761824     0.80700
C388        C  0.47322104  0.23707650  0.26288228     0.80700
O389        O  0.31398115  0.26507145  0.51492454    -0.68400
O390        O  0.26507588  0.31398550  0.44561002    -0.68600
O391        O  0.26507435  0.31398348  0.51492484    -0.68500
O392        O  0.31398259  0.26507338  0.44560964    -0.68500
O393        O  0.27436381  0.22545902  0.44560769    -0.68500
O394        O  0.22545571  0.27436896  0.51492248    -0.68500
O395        O  0.22545730  0.27437096  0.44560790    -0.68400
O396        O  0.27436241  0.22545708  0.51492234    -0.68600
V397        V  0.28875745  0.28875748  0.48026724     1.35200
V398        V  0.25068092  0.25068503  0.48026515     1.35200
C399        C  0.30234849  0.23708594  0.52674827     0.80800
C400        C  0.23708976  0.30235652  0.43378405     0.80900
C401        C  0.23708742  0.30235392  0.52674871     0.80700
C402        C  0.30235053  0.23708849  0.43378346     0.80700
O403        O  0.22544665  0.76506447  0.44560571    -0.68400
O404        O  0.27435716  0.81397337  0.51492022    -0.68600
O405        O  0.27435680  0.81397318  0.44560524    -0.68500
O406        O  0.22544713  0.76506453  0.51492074    -0.68500
O407        O  0.26506340  0.72544772  0.51492084    -0.68500
O408        O  0.31397254  0.77435585  0.44560476    -0.68500
O409        O  0.31397349  0.77435650  0.51491975    -0.68400
O410        O  0.26506247  0.72544709  0.44560584    -0.68600
V411        V  0.25067296  0.78874784  0.48026299     1.35200
V412        V  0.28874694  0.75067283  0.48026281     1.35200
C413        C  0.23707711  0.73707864  0.43378129     0.80800
C414        C  0.30234285  0.80234222  0.52674443     0.80900
C415        C  0.30234153  0.80234119  0.43378091     0.80700
C416        C  0.23707844  0.73707938  0.52674489     0.80700
O417        O  0.72543326  0.26507462  0.44560106    -0.68400
O418        O  0.77434439  0.31398376  0.51491507    -0.68600
O419        O  0.77434368  0.31398317  0.44560007    -0.68500
O420        O  0.72543410  0.26507509  0.51491617    -0.68500
O421        O  0.76504980  0.22545772  0.51491564    -0.68500
O422        O  0.81395966  0.27436609  0.44560027    -0.68500
O423        O  0.81396007  0.27436624  0.51491517    -0.68400
O424        O  0.76504941  0.22545755  0.44560070    -0.68600
V425        V  0.75065986  0.28875812  0.48025808     1.35200
V426        V  0.78873369  0.25068295  0.48025794     1.35200
C427        C  0.73706384  0.23708887  0.43377633     0.80800
C428        C  0.80232980  0.30235221  0.52673957     0.80900
C429        C  0.80232864  0.30235130  0.43377621     0.80700
C430        C  0.73706518  0.23708977  0.52674000     0.80700
O431        O  0.27436435  0.48505871  0.77453259    -0.68400
O432        O  0.22545736  0.55437341  0.72562082    -0.68600
O433        O  0.22545434  0.48505874  0.72562384    -0.68500
O434        O  0.27436743  0.55437364  0.77452946    -0.68500
O435        O  0.31398351  0.55436993  0.73491249    -0.68500
O436        O  0.26507031  0.48505524  0.68600676    -0.68500
O437        O  0.26507334  0.55436996  0.68600377    -0.68400
O438        O  0.31398032  0.48505490  0.73491552    -0.68600
V439        V  0.25068196  0.51971606  0.74930567     1.35200
V440        V  0.28875590  0.51971257  0.71123072     1.35200
C441        C  0.30234913  0.47323178  0.76290184     0.80800
C442        C  0.23708824  0.56619622  0.69763436     0.80900
C443        C  0.23708406  0.47323234  0.69763835     0.80700
C444        C  0.30235349  0.56619686  0.76289768     0.80700
O445        O  0.72543927  0.55437307  0.22560346    -0.68400
O446        O  0.77434649  0.48505879  0.27451580    -0.68600
O447        O  0.77434926  0.55437348  0.27451222    -0.68500
O448        O  0.72543642  0.48505803  0.22560705    -0.68500
O449        O  0.76505249  0.48505428  0.18599007    -0.68500
O450        O  0.81396529  0.55436972  0.23489519    -0.68500
O451        O  0.81396249  0.48505505  0.23489874    -0.68400
O452        O  0.76505528  0.55436925  0.18598643    -0.68600
V453        V  0.75066385  0.51971577  0.24928856     1.35200
V454        V  0.78873782  0.51971213  0.21121362     1.35200
C455        C  0.73707041  0.56619614  0.19761710     0.80800
C456        C  0.80233175  0.47323224  0.26288545     0.80900
C457        C  0.80233549  0.56619639  0.26288054     0.80700
C458        C  0.73706655  0.47323102  0.19762200     0.80700
O459        O  0.48504981  0.22544243  0.72562616    -0.68400
O460        O  0.55436449  0.27435380  0.77453378    -0.68600
O461        O  0.48504970  0.27435123  0.77453622    -0.68500
O462        O  0.55436460  0.22544514  0.72562368    -0.68500
O463        O  0.55436134  0.26506226  0.68600769    -0.68500
O464        O  0.48504689  0.31396836  0.73492022    -0.68500
O465        O  0.55436156  0.31397086  0.73491774    -0.68400
O466        O  0.48504672  0.26505968  0.68601031    -0.68600
V467        V  0.51970708  0.25066920  0.74930896     1.35200
V468        V  0.51970416  0.28874424  0.71123504     1.35200
C469        C  0.47322334  0.23707311  0.69764095     0.80800
C470        C  0.56618810  0.30234021  0.76290293     0.80900
C471        C  0.47322309  0.30233696  0.76290644     0.80700
C472        C  0.56618805  0.23707670  0.69763742     0.80700
O473        O  0.55437011  0.76507622  0.18599698    -0.68400
O474        O  0.48505496  0.81398179  0.23490960    -0.68600
O475        O  0.55436976  0.81398414  0.23490789    -0.68500
O476        O  0.48505541  0.76507399  0.18599870    -0.68500
O477        O  0.48505769  0.72545625  0.22561406    -0.68500
O478        O  0.55437234  0.77436626  0.27452310    -0.68500
O479        O  0.48505754  0.77436408  0.27452498    -0.68400
O480        O  0.55437238  0.72545836  0.22561224    -0.68600
V481        V  0.51971262  0.78875798  0.21122431     1.35200
V482        V  0.51971496  0.75068231  0.24929759     1.35200
C483        C  0.56619623  0.73709024  0.19762635     0.80800
C484        C  0.47323109  0.80234975  0.26289539     0.80900
C485        C  0.56619597  0.80235290  0.26289293     0.80700
C486        C  0.47323157  0.73708739  0.19762886     0.80700
O487        O  0.77435592  0.72544431  0.44559644    -0.68400
O488        O  0.72544837  0.77435413  0.51491214    -0.68600
O489        O  0.72544965  0.77435676  0.44559740    -0.68500
O490        O  0.77435467  0.72544169  0.51491130    -0.68500
O491        O  0.81397361  0.76505587  0.51491367    -0.68500
O492        O  0.76506869  0.81397083  0.44559981    -0.68500
O493        O  0.76506743  0.81396822  0.51491445    -0.68400
O494        O  0.81397495  0.76505844  0.44559895    -0.68600
V495        V  0.75067325  0.75067017  0.48025434     1.35200
V496        V  0.78875010  0.78874231  0.48025666     1.35200
C497        C  0.80234283  0.73707374  0.43377234     0.80800
C498        C  0.73708056  0.80233888  0.52673842     0.80900
C499        C  0.73708235  0.80234240  0.43377398     0.80700
C500        C  0.80234082  0.73707041  0.52673744     0.80700
O501        O  0.81396436  0.48505429  0.72561937    -0.68400
O502        O  0.76505738  0.55436859  0.77453207    -0.68600
O503        O  0.76505736  0.48505339  0.77453124    -0.68500
O504        O  0.81396430  0.55436911  0.72562023    -0.68500
O505        O  0.77434566  0.55436968  0.68600576    -0.68500
O506        O  0.72543898  0.48505366  0.73491655    -0.68500
O507        O  0.72543872  0.55436878  0.73491748    -0.68400
O508        O  0.77434584  0.48505491  0.68600464    -0.68600
V509        V  0.78873974  0.51971136  0.74930478     1.40800
V510        V  0.75066334  0.51971176  0.71123216     1.35200
C511        C  0.80233221  0.47323029  0.69763390     0.80800
C512        C  0.73707118  0.56619358  0.76290255     0.80900
C513        C  0.73707189  0.47322930  0.76290085     0.80700
C514        C  0.80233162  0.56619336  0.69763568     0.80700
O515        O  0.55437069  0.72545803  0.73490620    -0.68400
O516        O  0.48505677  0.77436838  0.68599642    -0.68600
O517        O  0.55437175  0.77436661  0.68599601    -0.68500
O518        O  0.48505586  0.72545985  0.73490658    -0.68500
O519        O  0.48505732  0.76507685  0.77452272    -0.68500
O520        O  0.55437279  0.81398412  0.72561165    -0.68500
O521        O  0.48505770  0.81398551  0.72561253    -0.68400
O522        O  0.55437225  0.76507553  0.77452194    -0.68600
V523        V  0.51971380  0.75068431  0.71122231     1.35200
V524        V  0.51971501  0.78875949  0.74929618     1.35200
C525        C  0.56619578  0.73708930  0.76289146     0.80800
C526        C  0.47323261  0.80235419  0.69762727     0.80900
C527        C  0.56619650  0.80235181  0.69762670     0.80700
C528        C  0.47323256  0.73709177  0.76289179     0.80700
C529        C  0.32029295  0.32030466  0.90688175    -0.09900
C530        C  0.33463915  0.33464927  0.88333925    -0.11500
C531        C  0.42277606  0.33464766  0.79521828    -0.09900
C532        C  0.44632503  0.32030052  0.78087171    -0.11500
C533        C  0.33465562  0.42278312  0.79521401    -0.09900
C534        C  0.32031246  0.44633197  0.78086726    -0.11500
C535        C  0.21909923  0.21910806  0.90687886    -0.09900
C536        C  0.20475458  0.20476430  0.88333054    -0.11500
C537        C  0.32029080  0.32030483  0.05364257    -0.09900
C538        C  0.33463811  0.33465157  0.07718743    -0.11500
C539        C  0.32031031  0.44633566  0.17965604    -0.09900
C540        C  0.33465376  0.42278699  0.16530991    -0.11500
C541        C  0.42277556  0.33465127  0.16530761    -0.09900
C542        C  0.44632218  0.32030483  0.17965231    -0.11500
C543        C  0.21909786  0.21910763  0.05364567    -0.09900
C544        C  0.20475545  0.20476451  0.07719208    -0.11500
C545        C  0.20477301  0.61664355  0.29520241    -0.09900
C546        C  0.21912012  0.59309701  0.28085561    -0.11500
C547        C  0.20476644  0.70476869  0.38333453    -0.09900
C548        C  0.21911155  0.71911364  0.40688165    -0.11500
C549        C  0.11663810  0.20477453  0.16533259    -0.09900
C550        C  0.09309178  0.21912303  0.17968041    -0.11500
C551        C  0.92277951  0.33466812  0.29521224    -0.09900
C552        C  0.94632995  0.32032294  0.28086806    -0.11500
C553        C  0.83464298  0.42278784  0.29519999    -0.09900
C554        C  0.82029641  0.44633456  0.28085179    -0.11500
C555        C  0.83464071  0.33466143  0.38333188    -0.09900
C556        C  0.82029543  0.32031728  0.40687559    -0.11500
C557        C  0.92278643  0.20477974  0.16532895    -0.09900
C558        C  0.94633300  0.21912733  0.17967652    -0.11500
C559        C  0.11664433  0.33466565  0.29521657    -0.09900
C560        C  0.09309508  0.32031963  0.28087240    -0.11500
C561        C  0.21912624  0.32032269  0.40688548    -0.09900
C562        C  0.20477990  0.33466905  0.38333745    -0.11500
C563        C  0.21912021  0.44633553  0.28085504    -0.09900
C564        C  0.20477648  0.42279172  0.29520168    -0.11500
C565        C  0.20477429  0.33466467  0.57719462    -0.09900
C566        C  0.21912265  0.32031874  0.55364663    -0.11500
C567        C  0.20476994  0.42278786  0.66532712    -0.09900
C568        C  0.21911734  0.44633433  0.67967400    -0.11500
C569        C  0.33465564  0.20477071  0.57719468    -0.09900
C570        C  0.32031172  0.21911921  0.55364694    -0.11500
C571        C  0.42277728  0.20476149  0.66532912    -0.09900
C572        C  0.44632507  0.21910767  0.67967648    -0.11500
C573        C  0.20476058  0.11664074  0.16532705    -0.09900
C574        C  0.21910680  0.09309298  0.17967314    -0.11500
C575        C  0.33465149  0.92278216  0.29520812    -0.09900
C576        C  0.32030474  0.94633010  0.28086229    -0.11500
C577        C  0.42278307  0.83465748  0.29520799    -0.09900
C578        C  0.44633203  0.82031279  0.28086100    -0.11500
C579        C  0.33465218  0.83465137  0.38333564    -0.09900
C580        C  0.32030782  0.82030703  0.40687998    -0.11500
C581        C  0.20476654  0.92278410  0.16531865    -0.09900
C582        C  0.21911236  0.94633123  0.17966580    -0.11500
C583        C  0.32029888  0.09309273  0.28086895    -0.09900
C584        C  0.33464560  0.11664081  0.29521366    -0.11500
C585        C  0.42277697  0.20476786  0.29519630    -0.09900
C586        C  0.44632064  0.21911092  0.28084949    -0.11500
C587        C  0.32031404  0.21912342  0.40688470    -0.09900
C588        C  0.33465840  0.20477548  0.38333564    -0.11500
C589        C  0.59308384  0.21910987  0.28084838    -0.09900
C590        C  0.61663069  0.20476610  0.29519523    -0.11500
C591        C  0.71909841  0.21912374  0.40687704    -0.09900
C592        C  0.70475401  0.20477726  0.38332994    -0.11500
C593        C  0.33465636  0.61664603  0.16531423    -0.09900
C594        C  0.32031216  0.59310099  0.17965751    -0.11500
C595        C  0.42278504  0.70477588  0.16531748    -0.09900
C596        C  0.44633322  0.71912252  0.17966413    -0.11500
C597        C  0.61663141  0.33464758  0.16530959    -0.09900
C598        C  0.59308636  0.32030292  0.17965230    -0.11500
C599        C  0.71910107  0.44633113  0.17965894    -0.09900
C600        C  0.70475584  0.42278228  0.16531405    -0.11500
C601        C  0.82031902  0.21911659  0.05364453    -0.09900
C602        C  0.83466525  0.20477183  0.07719362    -0.11500
C603        C  0.70476957  0.33465061  0.07718979    -0.09900
C604        C  0.71911884  0.32030434  0.05364250    -0.11500
C605        C  0.70476843  0.33464850  0.88333562    -0.09900
C606        C  0.71911600  0.32030172  0.90688273    -0.11500
C607        C  0.59308692  0.32030534  0.78086681    -0.09900
C608        C  0.61663565  0.33465202  0.79521227    -0.11500
C609        C  0.70476388  0.42278237  0.79521098    -0.09900
C610        C  0.71910694  0.44632757  0.78086718    -0.11500
C611        C  0.83466046  0.20476829  0.88333061    -0.09900
C612        C  0.82031491  0.21911363  0.90688069    -0.11500
C613        C  0.09308665  0.21912341  0.78084911    -0.09900
C614        C  0.11663186  0.20477644  0.79519510    -0.11500
C615        C  0.11663533  0.33466350  0.66531373    -0.09900
C616        C  0.09308940  0.32031950  0.67965542    -0.11500
C617        C  0.94632496  0.21912185  0.78084885    -0.09900
C618        C  0.92278180  0.20477662  0.79519406    -0.11500
C619        C  0.92277585  0.33466230  0.66530947    -0.09900
C620        C  0.94632360  0.32031744  0.67965414    -0.11500
C621        C  0.83464212  0.33466249  0.57718521    -0.09900
C622        C  0.82029576  0.32031733  0.55363865    -0.11500
C623        C  0.83464287  0.42278654  0.66531880    -0.09900
C624        C  0.82029703  0.44633229  0.67966677    -0.11500
C625        C  0.20476510  0.83465806  0.07718809    -0.09900
C626        C  0.21911175  0.82031223  0.05363966    -0.11500
C627        C  0.33465815  0.70477817  0.07718803    -0.09900
C628        C  0.32031169  0.71912433  0.05364024    -0.11500
C629        C  0.33465795  0.70477599  0.88333099    -0.09900
C630        C  0.32031023  0.71912175  0.90687878    -0.11500
C631        C  0.32031910  0.59309638  0.78086076    -0.09900
C632        C  0.33466496  0.61664533  0.79520549    -0.11500
C633        C  0.42278795  0.70478102  0.79520295    -0.09900
C634        C  0.44633205  0.71912607  0.78085853    -0.11500
C635        C  0.20476237  0.83465460  0.88332966    -0.09900
C636        C  0.21910963  0.82030954  0.90687752    -0.11500
C637        C  0.21909915  0.09309249  0.78085118    -0.09900
C638        C  0.20475360  0.11664057  0.79519669    -0.11500
C639        C  0.32029821  0.09309151  0.67966133    -0.09900
C640        C  0.33464427  0.11663608  0.66531849    -0.11500
C641        C  0.20475620  0.92278299  0.79519978    -0.09900
C642        C  0.21909965  0.94632827  0.78085502    -0.11500
C643        C  0.33464674  0.92278268  0.66531861    -0.09900
C644        C  0.32029896  0.94632894  0.67966408    -0.11500
C645        C  0.32030859  0.82030762  0.55364346    -0.09900
C646        C  0.33465401  0.83465392  0.57718992    -0.11500
C647        C  0.44633264  0.82031911  0.67966233    -0.09900
C648        C  0.42278483  0.83466310  0.66531710    -0.11500
C649        C  0.83466261  0.11664519  0.16532510    -0.09900
C650        C  0.82031800  0.09310055  0.17966887    -0.11500
C651        C  0.71911758  0.09310019  0.28085910    -0.09900
C652        C  0.70476894  0.11664657  0.29520342    -0.11500
C653        C  0.71911751  0.94633742  0.28086119    -0.09900
C654        C  0.70477281  0.92279268  0.29520507    -0.11500
C655        C  0.61664274  0.83466435  0.29520363    -0.09900
C656        C  0.59309455  0.82031791  0.28085757    -0.11500
C657        C  0.70477303  0.83465843  0.38332936    -0.09900
C658        C  0.71911869  0.82030976  0.40687618    -0.11500
C659        C  0.83466069  0.92278885  0.16532373    -0.09900
C660        C  0.82031585  0.94633668  0.17967042    -0.11500
C661        C  0.11664051  0.70476835  0.29520204    -0.09900
C662        C  0.09309394  0.71911312  0.28085615    -0.11500
C663        C  0.09309297  0.82031019  0.17966281    -0.09900
C664        C  0.11663736  0.83465515  0.16531824    -0.11500
C665        C  0.92278394  0.83465469  0.16531794    -0.09900
C666        C  0.94633017  0.82030790  0.17966270    -0.11500
C667        C  0.92278441  0.70476604  0.29519738    -0.09900
C668        C  0.94632922  0.71911028  0.28085477    -0.11500
C669        C  0.83465003  0.61664129  0.29519080    -0.09900
C670        C  0.82030213  0.59309464  0.28084457    -0.11500
C671        C  0.83465335  0.70476351  0.38332431    -0.09900
C672        C  0.82030660  0.71910936  0.40687367    -0.11500
C673        C  0.20477615  0.61664047  0.66532116    -0.09900
C674        C  0.21912312  0.59309451  0.67966802    -0.11500
C675        C  0.20476879  0.70476856  0.57719041    -0.09900
C676        C  0.21911236  0.71911346  0.55364581    -0.11500
C677        C  0.59308627  0.21911345  0.67967134    -0.09900
C678        C  0.61663462  0.20476884  0.66532235    -0.11500
C679        C  0.71909923  0.21912386  0.55364133    -0.09900
C680        C  0.70475667  0.20477886  0.57718606    -0.11500
C681        C  0.70476288  0.61664487  0.16530597    -0.09900
C682        C  0.71910696  0.59309582  0.17965175    -0.11500
C683        C  0.61664174  0.70477988  0.16531226    -0.09900
C684        C  0.59309415  0.71912642  0.17966021    -0.11500
C685        C  0.83465487  0.11664512  0.79519729    -0.09900
C686        C  0.82030881  0.09309781  0.78085064    -0.11500
C687        C  0.71911476  0.09309753  0.67965600    -0.09900
C688        C  0.70476716  0.11664535  0.66531123    -0.11500
C689        C  0.11663366  0.83464747  0.79520176    -0.09900
C690        C  0.09308648  0.82029996  0.78085537    -0.11500
C691        C  0.11663846  0.70475908  0.66531786    -0.09900
C692        C  0.09308826  0.71910442  0.67966393    -0.11500
C693        C  0.82030923  0.82032201  0.05364142    -0.09900
C694        C  0.83465480  0.83466579  0.07718896    -0.11500
C695        C  0.71911506  0.71912604  0.05363925    -0.09900
C696        C  0.70477029  0.70478067  0.07718291    -0.11500
C697        C  0.92277955  0.83465288  0.79519774    -0.09900
C698        C  0.94632657  0.82030393  0.78085150    -0.11500
C699        C  0.83465862  0.92278852  0.79519353    -0.09900
C700        C  0.82031348  0.94633579  0.78084661    -0.11500
C701        C  0.83465417  0.83466639  0.88333002    -0.09900
C702        C  0.82030980  0.82032347  0.90687597    -0.11500
C703        C  0.92277647  0.70476088  0.66531404    -0.09900
C704        C  0.94632483  0.71910690  0.67965951    -0.11500
C705        C  0.83464245  0.61663661  0.66532225    -0.09900
C706        C  0.82029743  0.59309321  0.67966835    -0.11500
C707        C  0.83464867  0.70475794  0.57718533    -0.09900
C708        C  0.82030372  0.71910425  0.55363642    -0.11500
C709        C  0.70477421  0.92278645  0.66530692    -0.09900
C710        C  0.71912021  0.94633455  0.67965189    -0.11500
C711        C  0.59309748  0.82031662  0.67966009    -0.09900
C712        C  0.61664264  0.83465957  0.66531478    -0.11500
C713        C  0.70477059  0.83465183  0.57718486    -0.09900
C714        C  0.71911651  0.82030413  0.55363684    -0.11500
C715        C  0.70476956  0.70478065  0.88333204    -0.09900
C716        C  0.71911562  0.71912745  0.90687743    -0.11500
C717        C  0.61664026  0.70477715  0.79520354    -0.09900
C718        C  0.59309447  0.71912326  0.78085719    -0.11500
C719        C  0.70476304  0.61664242  0.79521259    -0.09900
C720        C  0.71910764  0.59309338  0.78086784    -0.11500
loop_ 
_geom_bond_atom_site_label_1 
_geom_bond_atom_site_label_2 
_geom_bond_distance 
_geom_bond_site_symmetry_2 
_ccdc_geom_bond_type 
C1            N2   1.358       .  A
C1            N6   1.358       .  A
C1          C717   1.437       .  S
N2            C3   1.358       .  A
C3            N4   1.358       .  A
C3          C715   1.437       .  S
N4            C5   1.358       .  A
C5            N6   1.358       .  A
C5          C719   1.437       .  S
C7            N8   1.357       .  A
C7           N12   1.358       .  A
C7          C712   1.437       .  S
N8            C9   1.358       .  A
C9           N10   1.358       .  A
C9          C713   1.437       .  S
N10          C11   1.358       .  A
C11          N12   1.358       .  A
C11         C709   1.437       .  S
C13          N14   1.358       .  A
C13          N18   1.358       .  A
C13         C707   1.437       .  S
N14          C15   1.358       .  A
C15          N16   1.358       .  A
C15         C703   1.437       .  S
N16          C17   1.358       .  A
C17          N18   1.358       .  A
C17         C705   1.437       .  S
C19          N20   1.357       .  A
C19          N24   1.358       .  A
C19         C701   1.437       .  S
N20          C21   1.358       .  A
C21          N22   1.358       .  A
C21         C697   1.437       .  S
N22          C23   1.358       .  A
C23          N24   1.358       .  A
C23         C699   1.437       .  S
O25          V33   1.901       .  S
O25          C35   1.263       .  A
O26          V33   1.901   1_554  S
O26          C36   1.263       .  A
O27          V33   1.901       .  S
O27          C37   1.263       .  A
O28          V33   1.901   1_554  S
O28          C38   1.263       .  A
O29          V34   1.901   1_554  S
O29          C38   1.263       .  A
O30          V34   1.901       .  S
O30          C37   1.263       .  A
O31          V34   1.901   1_554  S
O31          C36   1.263       .  A
O32          V34   1.901       .  S
O32          C35   1.263       .  A
V33          V34   2.090       .  T
C35         C702   1.437       .  S
C36         C695   1.437       .  S
C37         C716   1.436       .  S
C38         C693   1.436       .  S
O39          V47   1.901       .  S
O39          C49   1.263       .  A
O40          V47   1.901   1_655  S
O40          C50   1.263       .  A
O41          V47   1.901       .  S
O41          C51   1.263       .  A
O42          V47   1.901   1_655  S
O42          C52   1.263       .  A
O43          V48   1.901   1_655  S
O43          C52   1.263       .  A
O44          V48   1.901       .  S
O44          C51   1.263       .  A
O45          V48   1.901   1_655  S
O45          C50   1.263       .  A
O46          V48   1.901       .  S
O46          C49   1.263       .  A
V47          V48   2.090       .  T
C49         C692   1.436       .  S
C50         C698   1.436       .  S
C51         C690   1.436       .  S
C52         C704   1.436       .  S
O53          V61   1.901   1_565  S
O53          C63   1.263       .  A
O54          V61   1.901       .  S
O54          C64   1.263       .  A
O55          V61   1.901   1_565  S
O55          C65   1.263       .  A
O56          V61   1.901       .  S
O56          C66   1.263       .  A
O57          V62   1.901       .  S
O57          C66   1.263       .  A
O58          V62   1.901   1_565  S
O58          C65   1.263       .  A
O59          V62   1.901       .  S
O59          C64   1.263       .  A
O60          V62   1.901   1_565  S
O60          C63   1.263       .  A
V61          V62   2.090       .  T
C63         C700   1.436       .  S
C64         C687   1.436       .  S
C65         C710   1.436       .  S
C66         C686   1.436       .  S
C67          N68   1.358       .  A
C67          N72   1.358       .  A
C67         C681   1.437       .  S
N68          C69   1.358       .  A
C69          N70   1.358       .  A
C69         C683   1.437       .  S
N70          C71   1.357       .  A
C71          N72   1.358       .  A
C71         C696   1.437       .  S
C73          N74   1.358       .  A
C73          N78   1.358       .  A
C73         C678   1.437       .  S
N74          C75   1.357       .  A
C75          N76   1.358       .  A
C75         C688   1.437       .  S
N76          C77   1.358       .  A
C77          N78   1.357       .  A
C77         C680   1.437       .  S
C79          N80   1.358       .  A
C79          N84   1.358       .  A
C79         C691   1.437       .  S
N80          C81   1.357       .  A
C81          N82   1.358       .  A
C81         C675   1.437       .  S
N82          C83   1.358       .  A
C83          N84   1.357       .  A
C83         C673   1.437       .  S
C85          N86   1.358       .  A
C85          N90   1.358       .  A
C85         C671   1.437       .  S
N86          C87   1.357       .  A
C87          N88   1.358       .  A
C87         C669   1.437       .  S
N88          C89   1.358       .  A
C89          N90   1.357       .  A
C89         C667   1.437       .  S
O91          V99   1.901   1_655  S
O91         C101   1.263       .  A
O92          V99   1.901       .  S
O92         C102   1.263       .  A
O93          V99   1.901   1_655  S
O93         C103   1.263       .  A
O94          V99   1.901       .  S
O94         C104   1.263       .  A
O95         V100   1.901       .  S
O95         C104   1.263       .  A
O96         V100   1.901   1_655  S
O96         C103   1.263       .  A
O97         V100   1.901       .  S
O97         C102   1.263       .  A
O98         V100   1.901   1_655  S
O98         C101   1.263       .  A
V99         V100   2.090       .  T
C101        C668   1.437       .  S
C102        C663   1.437       .  S
C103        C666   1.436       .  S
C104        C662   1.436       .  S
C105        N106   1.358       .  A
C105        N110   1.358       .  A
C105        C694   1.437       .  S
N106        C107   1.358       .  A
C107        N108   1.358       .  A
C107        C665   1.437       .  S
N108        C109   1.358       .  A
C109        N110   1.358       .  A
C109        C659   1.437       .  S
C111        N112   1.358       .  A
C111        N116   1.358       .  A
C111        C657   1.437       .  S
N112        C113   1.358       .  A
C113        N114   1.358       .  A
C113        C655   1.437       .  S
N114        C115   1.358       .  A
C115        N116   1.358       .  A
C115        C654   1.437       .  S
O117        V125   1.901   1_565  S
O117        C127   1.263       .  A
O118        V125   1.901       .  S
O118        C128   1.263       .  A
O119        V125   1.901   1_565  S
O119        C129   1.263       .  A
O120        V125   1.901       .  S
O120        C130   1.263       .  A
O121        V126   1.901       .  S
O121        C130   1.263       .  A
O122        V126   1.901   1_565  S
O122        C129   1.263       .  A
O123        V126   1.901       .  S
O123        C128   1.263       .  A
O124        V126   1.901   1_565  S
O124        C127   1.263       .  A
V125        V126   2.090       .  T
C127        C653   1.437       .  S
C128        C650   1.437       .  S
C129        C660   1.436       .  S
C130        C651   1.436       .  S
C131        N132   1.358       .  A
C131        N136   1.358       .  A
C131        C648   1.437       .  S
N132        C133   1.358       .  A
C133        N134   1.358       .  A
C133        C643   1.437       .  S
N134        C135   1.358       .  A
C135        N136   1.358       .  A
C135        C646   1.437       .  S
O137        V145   1.901       .  S
O137        C147   1.263       .  A
O138        V145   1.901   1_565  S
O138        C148   1.263       .  A
O139        V145   1.901       .  S
O139        C149   1.263       .  A
O140        V145   1.901   1_565  S
O140        C150   1.263       .  A
O141        V146   1.901   1_565  S
O141        C150   1.263       .  A
O142        V146   1.901       .  S
O142        C149   1.263       .  A
O143        V146   1.901   1_565  S
O143        C148   1.263       .  A
O144        V146   1.901       .  S
O144        C147   1.263       .  A
V145        V146   2.090       .  T
C147        C637   1.436       .  S
C148        C644   1.436       .  S
C149        C639   1.437       .  S
C150        C642   1.437       .  S
C151        N152   1.358       .  A
C151        N156   1.358       .  A
C151        C641   1.437       .  S
N152        C153   1.358       .  A
C153        N154   1.358       .  A
C153        C689   1.437       .  S
N154        C155   1.358       .  A
C155        N156   1.358       .  A
C155        C635   1.437       .  S
C157        N158   1.358       .  A
C157        N162   1.358       .  A
C157        C629   1.437       .  S
N158        C159   1.358       .  A
C159        N160   1.358       .  A
C159        C632   1.437       .  S
N160        C161   1.358       .  A
C161        N162   1.357       .  A
C161        C633   1.437       .  S
O163        V171   1.901   1_554  S
O163        C173   1.263       .  A
O164        V171   1.901       .  S
O164        C174   1.263       .  A
O165        V171   1.901   1_554  S
O165        C175   1.263       .  A
O166        V171   1.901       .  S
O166        C176   1.263       .  A
O167        V172   1.901       .  S
O167        C176   1.263       .  A
O168        V172   1.901   1_554  S
O168        C175   1.263       .  A
O169        V172   1.901       .  S
O169        C174   1.263       .  A
O170        V172   1.901   1_554  S
O170        C173   1.263       .  A
V171        V172   2.090       .  T
C173        C626   1.436       .  S
C174        C630   1.436       .  S
C175        C628   1.436       .  S
C176        C636   1.436       .  S
C177        N178   1.358       .  A
C177        N182   1.358       .  A
C177        C621   1.437       .  S
N178        C179   1.358       .  A
C179        N180   1.358       .  A
C179        C619   1.437       .  S
N180        C181   1.358       .  A
C181        N182   1.358       .  A
C181        C623   1.437       .  S
O183        V191   1.901   1_655  S
O183        C193   1.263       .  A
O184        V191   1.901       .  S
O184        C194   1.263       .  A
O185        V191   1.901   1_655  S
O185        C195   1.263       .  A
O186        V191   1.901       .  S
O186        C196   1.263       .  A
O187        V192   1.901       .  S
O187        C196   1.263       .  A
O188        V192   1.901   1_655  S
O188        C195   1.263       .  A
O189        V192   1.901       .  S
O189        C194   1.263       .  A
O190        V192   1.901   1_655  S
O190        C193   1.263       .  A
V191        V192   2.090       .  T
C193        C617   1.437       .  S
C194        C616   1.437       .  S
C195        C620   1.436       .  S
C196        C613   1.436       .  S
C197        N198   1.358       .  A
C197        N202   1.358       .  A
C197        C611   1.437       .  S
N198        C199   1.357       .  A
C199        N200   1.358       .  A
C199        C618   1.437       .  S
N200        C201   1.358       .  A
C201        N202   1.357       .  A
C201        C685   1.437       .  S
C203        N204   1.357       .  A
C203        N208   1.358       .  A
C203        C609   1.437       .  S
N204        C205   1.358       .  A
C205        N206   1.358       .  A
C205        C608   1.437       .  S
N206        C207   1.358       .  A
C207        N208   1.358       .  A
C207        C605   1.437       .  S
O209        V217   1.901       .  S
O209        C219   1.263       .  A
O210        V217   1.901   1_554  S
O210        C220   1.263       .  A
O211        V217   1.901       .  S
O211        C221   1.263       .  A
O212        V217   1.901   1_554  S
O212        C222   1.263       .  A
O213        V218   1.901   1_554  S
O213        C222   1.263       .  A
O214        V218   1.901       .  S
O214        C221   1.263       .  A
O215        V218   1.901   1_554  S
O215        C220   1.263       .  A
O216        V218   1.901       .  S
O216        C219   1.263       .  A
V217        V218   2.090       .  T
C219        C612   1.436       .  S
C220        C604   1.436       .  S
C221        C606   1.436       .  S
C222        C601   1.436       .  S
C223        N224   1.358       .  A
C223        N228   1.357       .  A
C223        C600   1.437       .  S
N224        C225   1.358       .  A
C225        N226   1.357       .  A
C225        C597   1.437       .  S
N226        C227   1.358       .  A
C227        N228   1.358       .  A
C227        C603   1.437       .  S
C229        N230   1.358       .  A
C229        N234   1.358       .  A
C229        C595   1.437       .  S
N230        C231   1.358       .  A
C231        N232   1.358       .  A
C231        C627   1.437       .  S
N232        C233   1.358       .  A
C233        N234   1.357       .  A
C233        C593   1.437       .  S
C235        N236   1.358       .  A
C235        N240   1.358       .  A
C235        C592   1.437       .  S
N236        C237   1.358       .  A
C237        N238   1.358       .  A
C237        C590   1.437       .  S
N238        C239   1.358       .  A
C239        N240   1.358       .  A
C239        C652   1.437       .  S
C241        N242   1.358       .  A
C241        N246   1.358       .  A
C241        C588   1.437       .  S
N242        C243   1.357       .  A
C243        N244   1.358       .  A
C243        C584   1.437       .  S
N244        C245   1.358       .  A
C245        N246   1.357       .  A
C245        C585   1.437       .  S
C247        N248   1.358       .  A
C247        N252   1.358       .  A
C247        C581   1.437       .  S
N248        C249   1.358       .  A
C249        N250   1.357       .  A
C249        C664   1.437       .  S
N250        C251   1.358       .  A
C251        N252   1.358       .  A
C251        C625   1.437       .  S
C253        N254   1.358       .  A
C253        N258   1.358       .  A
C253        C577   1.437       .  S
N254        C255   1.358       .  A
C255        N256   1.358       .  A
C255        C575   1.437       .  S
N256        C257   1.358       .  A
C257        N258   1.357       .  A
C257        C579   1.437       .  S
O259        V267   1.901       .  S
O259        C269   1.263       .  A
O260        V267   1.901   1_565  S
O260        C270   1.263       .  A
O261        V267   1.901       .  S
O261        C271   1.263       .  A
O262        V267   1.901   1_565  S
O262        C272   1.263       .  A
O263        V268   1.901   1_565  S
O263        C272   1.263       .  A
O264        V268   1.901       .  S
O264        C271   1.263       .  A
O265        V268   1.901   1_565  S
O265        C270   1.263       .  A
O266        V268   1.901       .  S
O266        C269   1.263       .  A
V267        V268   2.090       .  T
C269        C583   1.436       .  S
C270        C582   1.436       .  S
C271        C574   1.436       .  S
C272        C576   1.436       .  S
C273        N274   1.358       .  A
C273        N278   1.358       .  A
C273        C571   1.437       .  S
N274        C275   1.358       .  A
C275        N276   1.358       .  A
C275        C569   1.437       .  S
N276        C277   1.358       .  A
C277        N278   1.358       .  A
C277        C640   1.437       .  S
C279        N280   1.358       .  A
C279        N284   1.357       .  A
C279        C615   1.437       .  S
N280        C281   1.358       .  A
C281        N282   1.357       .  A
C281        C567   1.437       .  S
N282        C283   1.358       .  A
C283        N284   1.358       .  A
C283        C565   1.437       .  S
C285        N286   1.358       .  A
C285        N290   1.358       .  A
C285        C559   1.437       .  S
N286        C287   1.358       .  A
C287        N288   1.358       .  A
C287        C564   1.437       .  S
N288        C289   1.358       .  A
C289        N290   1.358       .  A
C289        C562   1.437       .  S
C291        N292   1.358       .  A
C291        N296   1.358       .  A
C291        C649   1.437       .  S
N292        C293   1.358       .  A
C293        N294   1.358       .  A
C293        C602   1.437       .  S
N294        C295   1.358       .  A
C295        N296   1.358       .  A
C295        C557   1.437       .  S
C297        N298   1.358       .  A
C297        N302   1.358       .  A
C297        C551   1.437       .  S
N298        C299   1.357       .  A
C299        N300   1.358       .  A
C299        C555   1.437       .  S
N300        C301   1.358       .  A
C301        N302   1.358       .  A
C301        C553   1.437       .  S
O303        V311   1.901   1_655  S
O303        C313   1.263       .  A
O304        V311   1.901       .  S
O304        C314   1.263       .  A
O305        V311   1.901   1_655  S
O305        C315   1.263       .  A
O306        V311   1.901       .  S
O306        C316   1.263       .  A
O307        V312   1.901       .  S
O307        C316   1.263       .  A
O308        V312   1.901   1_655  S
O308        C315   1.263       .  A
O309        V312   1.901       .  S
O309        C314   1.263       .  A
O310        V312   1.901   1_655  S
O310        C313   1.263       .  A
V311        V312   2.090       .  T
C313        C552   1.436       .  S
C314        C550   1.436       .  S
C315        C558   1.436       .  S
C316        C560   1.436       .  S
C317        N318   1.358       .  A
C317        N322   1.358       .  A
C317        C545   1.437       .  S
N318        C319   1.358       .  A
C319        N320   1.358       .  A
C319        C661   1.437       .  S
N320        C321   1.358       .  A
C321        N322   1.358       .  A
C321        C547   1.437       .  S
C323        N324   1.358       .  A
C323        N328   1.357       .  A
C323        C544   1.437       .  S
N324        C325   1.358       .  A
C325        N326   1.358       .  A
C325        C573   1.437       .  S
N326        C327   1.358       .  A
C327        N328   1.358       .  A
C327        C549   1.437       .  S
C329        N330   1.358       .  A
C329        N334   1.358       .  A
C329        C540   1.437       .  S
N330        C331   1.358       .  A
C331        N332   1.358       .  A
C331        C541   1.437       .  S
N332        C333   1.358       .  A
C333        N334   1.358       .  A
C333        C538   1.437       .  S
C335        N336   1.358       .  A
C335        N340   1.358       .  A
C335        C536   1.437       .  S
N336        C337   1.358       .  A
C337        N338   1.358       .  A
C337        C638   1.437       .  S
N338        C339   1.358       .  A
C339        N340   1.358       .  A
C339        C614   1.437       .  S
C341        N342   1.358       .  A
C341        N346   1.358       .  A
C341        C531   1.437       .  S
N342        C343   1.357       .  A
C343        N344   1.358       .  A
C343        C533   1.437       .  S
N344        C345   1.358       .  A
C345        N346   1.357       .  A
C345        C530   1.437       .  S
O347        V355   1.901   1_554  S
O347        C357   1.263       .  A
O348        V355   1.901       .  S
O348        C358   1.263       .  A
O349        V355   1.901   1_554  S
O349        C359   1.263       .  A
O350        V355   1.901       .  S
O350        C360   1.263       .  A
O351        V356   1.901       .  S
O351        C360   1.263       .  A
O352        V356   1.901   1_554  S
O352        C359   1.263       .  A
O353        V356   1.901       .  S
O353        C358   1.263       .  A
O354        V356   1.901   1_554  S
O354        C357   1.263       .  A
V355        V356   2.090       .  T
C357        C537   1.436       .  S
C358        C535   1.436       .  S
C359        C543   1.437       .  S
C360        C529   1.437       .  S
O361        V369   1.901       .  S
O361        C371   1.263       .  A
O362        V369   1.901       .  S
O362        C372   1.263       .  A
O363        V369   1.901       .  S
O363        C373   1.263       .  A
O364        V369   1.901       .  S
O364        C374   1.263       .  A
O365        V370   1.901       .  S
O365        C374   1.263       .  A
O366        V370   1.901       .  S
O366        C373   1.263       .  A
O367        V370   1.901       .  S
O367        C372   1.263       .  A
O368        V370   1.901       .  S
O368        C371   1.263       .  A
V369        V370   2.090       .  T
C371        C539   1.436       .  S
C372        C546   1.436       .  S
C373        C563   1.437       .  S
C374        C594   1.437       .  S
O375        V383   1.901       .  S
O375        C385   1.263       .  A
O376        V383   1.901       .  S
O376        C386   1.263       .  A
O377        V383   1.901       .  S
O377        C387   1.263       .  A
O378        V383   1.901       .  S
O378        C388   1.263       .  A
O379        V384   1.901       .  S
O379        C388   1.263       .  A
O380        V384   1.901       .  S
O380        C387   1.263       .  A
O381        V384   1.901       .  S
O381        C386   1.263       .  A
O382        V384   1.901       .  S
O382        C385   1.263       .  A
V383        V384   2.090       .  T
C385        C589   1.436       .  S
C386        C542   1.436       .  S
C387        C598   1.437       .  S
C388        C586   1.437       .  S
O389        V397   1.901       .  S
O389        C399   1.263       .  A
O390        V397   1.901       .  S
O390        C400   1.263       .  A
O391        V397   1.901       .  S
O391        C401   1.263       .  A
O392        V397   1.901       .  S
O392        C402   1.263       .  A
O393        V398   1.901       .  S
O393        C402   1.263       .  A
O394        V398   1.901       .  S
O394        C401   1.263       .  A
O395        V398   1.901       .  S
O395        C400   1.263       .  A
O396        V398   1.901       .  S
O396        C399   1.263       .  A
V397        V398   2.090       .  T
C399        C570   1.436       .  S
C400        C561   1.436       .  S
C401        C566   1.436       .  S
C402        C587   1.436       .  S
O403        V411   1.901       .  S
O403        C413   1.263       .  A
O404        V411   1.901       .  S
O404        C414   1.263       .  A
O405        V411   1.901       .  S
O405        C415   1.263       .  A
O406        V411   1.901       .  S
O406        C416   1.263       .  A
O407        V412   1.901       .  S
O407        C416   1.263       .  A
O408        V412   1.901       .  S
O408        C415   1.263       .  A
O409        V412   1.901       .  S
O409        C414   1.263       .  A
O410        V412   1.901       .  S
O410        C413   1.263       .  A
V411        V412   2.090       .  T
C413        C548   1.436       .  S
C414        C645   1.436       .  S
C415        C580   1.437       .  S
C416        C676   1.437       .  S
O417        V425   1.901       .  S
O417        C427   1.263       .  A
O418        V425   1.901       .  S
O418        C428   1.263       .  A
O419        V425   1.901       .  S
O419        C429   1.263       .  A
O420        V425   1.901       .  S
O420        C430   1.263       .  A
O421        V426   1.901       .  S
O421        C430   1.263       .  A
O422        V426   1.901       .  S
O422        C429   1.263       .  A
O423        V426   1.901       .  S
O423        C428   1.263       .  A
O424        V426   1.901       .  S
O424        C427   1.263       .  A
V425        V426   2.090       .  T
C427        C591   1.436       .  S
C428        C622   1.436       .  S
C429        C556   1.437       .  S
C430        C679   1.437       .  S
O431        V439   1.901       .  S
O431        C441   1.263       .  A
O432        V439   1.901       .  S
O432        C442   1.263       .  A
O433        V439   1.901       .  S
O433        C443   1.263       .  A
O434        V439   1.901       .  S
O434        C444   1.263       .  A
O435        V440   1.901       .  S
O435        C444   1.263       .  A
O436        V440   1.901       .  S
O436        C443   1.263       .  A
O437        V440   1.901       .  S
O437        C442   1.263       .  A
O438        V440   1.901       .  S
O438        C441   1.263       .  A
V439        V440   2.090       .  T
C441        C534   1.436       .  S
C442        C674   1.436       .  S
C443        C568   1.436       .  S
C444        C631   1.436       .  S
O445        V453   1.901       .  S
O445        C455   1.263       .  A
O446        V453   1.901       .  S
O446        C456   1.263       .  A
O447        V453   1.901       .  S
O447        C457   1.263       .  A
O448        V453   1.901       .  S
O448        C458   1.263       .  A
O449        V454   1.901       .  S
O449        C458   1.263       .  A
O450        V454   1.901       .  S
O450        C457   1.263       .  A
O451        V454   1.901       .  S
O451        C456   1.263       .  A
O452        V454   1.901       .  S
O452        C455   1.263       .  A
V453        V454   2.090       .  T
C455        C682   1.436       .  S
C456        C554   1.436       .  S
C457        C670   1.436       .  S
C458        C599   1.436       .  S
O459        V467   1.901       .  S
O459        C469   1.263       .  A
O460        V467   1.901       .  S
O460        C470   1.263       .  A
O461        V467   1.901       .  S
O461        C471   1.263       .  A
O462        V467   1.901       .  S
O462        C472   1.263       .  A
O463        V468   1.901       .  S
O463        C472   1.263       .  A
O464        V468   1.901       .  S
O464        C471   1.263       .  A
O465        V468   1.901       .  S
O465        C470   1.263       .  A
O466        V468   1.901       .  S
O466        C469   1.263       .  A
V467        V468   2.090       .  T
C469        C572   1.436       .  S
C470        C607   1.436       .  S
C471        C532   1.436       .  S
C472        C677   1.436       .  S
O473        V481   1.901       .  S
O473        C483   1.263       .  A
O474        V481   1.901       .  S
O474        C484   1.263       .  A
O475        V481   1.901       .  S
O475        C485   1.263       .  A
O476        V481   1.901       .  S
O476        C486   1.263       .  A
O477        V482   1.901       .  S
O477        C486   1.263       .  A
O478        V482   1.901       .  S
O478        C485   1.263       .  A
O479        V482   1.901       .  S
O479        C484   1.263       .  A
O480        V482   1.901       .  S
O480        C483   1.263       .  A
V481        V482   2.090       .  T
C483        C684   1.436       .  S
C484        C578   1.436       .  S
C485        C656   1.436       .  S
C486        C596   1.436       .  S
O487        V495   1.901       .  S
O487        C497   1.263       .  A
O488        V495   1.901       .  S
O488        C498   1.263       .  A
O489        V495   1.901       .  S
O489        C499   1.263       .  A
O490        V495   1.901       .  S
O490        C500   1.263       .  A
O491        V496   1.901       .  S
O491        C500   1.263       .  A
O492        V496   1.901       .  S
O492        C499   1.263       .  A
O493        V496   1.901       .  S
O493        C498   1.263       .  A
O494        V496   1.901       .  S
O494        C497   1.263       .  A
V495        V496   2.090       .  T
C497        C672   1.436       .  S
C498        C714   1.436       .  S
C499        C658   1.436       .  S
C500        C708   1.436       .  S
O501        V509   1.901       .  S
O501        C511   1.263       .  A
O502        V509   1.901       .  S
O502        C512   1.263       .  A
O503        V509   1.901       .  S
O503        C513   1.263       .  A
O504        V509   1.901       .  S
O504        C514   1.263       .  A
O505        V510   1.901       .  S
O505        C514   1.263       .  A
O506        V510   1.901       .  S
O506        C513   1.263       .  A
O507        V510   1.901       .  S
O507        C512   1.263       .  A
O508        V510   1.901       .  S
O508        C511   1.263       .  A
V509        V510   2.090       .  T
C511        C624   1.436       .  S
C512        C720   1.436       .  S
C513        C610   1.437       .  S
C514        C706   1.437       .  S
O515        V523   1.901       .  S
O515        C525   1.263       .  A
O516        V523   1.901       .  S
O516        C526   1.263       .  A
O517        V523   1.901       .  S
O517        C527   1.263       .  A
O518        V523   1.901       .  S
O518        C528   1.263       .  A
O519        V524   1.901       .  S
O519        C528   1.263       .  A
O520        V524   1.901       .  S
O520        C527   1.263       .  A
O521        V524   1.901       .  S
O521        C526   1.263       .  A
O522        V524   1.901       .  S
O522        C525   1.263       .  A
V523        V524   2.090       .  T
C525        C718   1.436       .  S
C526        C647   1.436       .  S
C527        C711   1.437       .  S
C528        C634   1.437       .  S
C529        C530   1.207       .  T
C531        C532   1.207       .  T
C533        C534   1.207       .  T
C535        C536   1.207       .  T
C537        C538   1.207       .  T
C539        C540   1.207       .  T
C541        C542   1.207       .  T
C543        C544   1.207       .  T
C545        C546   1.207       .  T
C547        C548   1.207       .  T
C549        C550   1.207       .  T
C551        C552   1.207       .  T
C553        C554   1.207       .  T
C555        C556   1.207       .  T
C557        C558   1.207       .  T
C559        C560   1.207       .  T
C561        C562   1.207       .  T
C563        C564   1.207       .  T
C565        C566   1.207       .  T
C567        C568   1.207       .  T
C569        C570   1.207       .  T
C571        C572   1.207       .  T
C573        C574   1.207       .  T
C575        C576   1.207       .  T
C577        C578   1.207       .  T
C579        C580   1.207       .  T
C581        C582   1.207       .  T
C583        C584   1.207       .  T
C585        C586   1.207       .  T
C587        C588   1.207       .  T
C589        C590   1.207       .  T
C591        C592   1.207       .  T
C593        C594   1.207       .  T
C595        C596   1.207       .  T
C597        C598   1.207       .  T
C599        C600   1.207       .  T
C601        C602   1.207       .  T
C603        C604   1.207       .  T
C605        C606   1.207       .  T
C607        C608   1.207       .  T
C609        C610   1.207       .  T
C611        C612   1.207       .  T
C613        C614   1.207       .  T
C615        C616   1.207       .  T
C617        C618   1.207       .  T
C619        C620   1.207       .  T
C621        C622   1.207       .  T
C623        C624   1.207       .  T
C625        C626   1.207       .  T
C627        C628   1.207       .  T
C629        C630   1.207       .  T
C631        C632   1.207       .  T
C633        C634   1.207       .  T
C635        C636   1.207       .  T
C637        C638   1.207       .  T
C639        C640   1.207       .  T
C641        C642   1.207       .  T
C643        C644   1.207       .  T
C645        C646   1.207       .  T
C647        C648   1.207       .  T
C649        C650   1.207       .  T
C651        C652   1.207       .  T
C653        C654   1.207       .  T
C655        C656   1.207       .  T
C657        C658   1.207       .  T
C659        C660   1.207       .  T
C661        C662   1.207       .  T
C663        C664   1.207       .  T
C665        C666   1.207       .  T
C667        C668   1.207       .  T
C669        C670   1.207       .  T
C671        C672   1.207       .  T
C673        C674   1.207       .  T
C675        C676   1.207       .  T
C677        C678   1.207       .  T
C679        C680   1.207       .  T
C681        C682   1.207       .  T
C683        C684   1.207       .  T
C685        C686   1.207       .  T
C687        C688   1.207       .  T
C689        C690   1.207       .  T
C691        C692   1.207       .  T
C693        C694   1.207       .  T
C695        C696   1.207       .  T
C697        C698   1.207       .  T
C699        C700   1.207       .  T
C701        C702   1.207       .  T
C703        C704   1.207       .  T
C705        C706   1.207       .  T
C707        C708   1.207       .  T
C709        C710   1.207       .  T
C711        C712   1.207       .  T
C713        C714   1.207       .  T
C715        C716   1.207       .  T
C717        C718   1.207       .  T
C719        C720   1.207       .  T
