geometry optimzed in LAMMPS
_audit_creation_date              2020-11-30 
_audit_creation_method            'lammps2cif' 
_symmetry_space_group_name_H-M    'P1' 
_symmetry_Int_Tables_number       1 
_symmetry_cell_setting            triclinic 
loop_ 
_symmetry_equiv_pos_as_xyz 
  x,y,z 
_cell_length_a                    27.245629157990685 
_cell_length_b                    68.62067322865357 
_cell_length_c                    44.2509533451082 
_cell_angle_alpha                 90.09064373070994 
_cell_angle_beta                  89.84208499423315 
_cell_angle_gamma                 89.913933586942 
loop_ 
_atom_site_label 
_atom_site_type_symbol 
_atom_site_fract_x 
_atom_site_fract_y 
_atom_site_fract_z 
_atom_site_charge 
O1          O  0.45819477  0.97100079  0.49966012    -0.72700
O2          O  0.45772794  0.02960100  0.50097309    -0.73680
O3          O  0.45724510  0.00067105  0.45512435    -0.62300
O4          O  0.45796784  0.99985632  0.04547492    -0.70710
O5          O  0.53932433  0.00080411  0.04528338    -0.70260
O6          O  0.53854473  0.99994459  0.45448729    -0.61510
O7          O  0.53902152  0.02955373  0.99929194    -0.74020
O8          O  0.53948395  0.97111332  0.00040690    -0.72800
Cu9        Cu  0.45497950  0.00028265  0.50032009     1.04560
Cu10       Cu  0.54193610  0.00035303  0.99985880     1.04330
C11         C  0.49897664  0.96174921  0.50002581     0.93500
C12         C  0.49840076  0.03887261  0.00014979     0.92640
C13         C  0.49762015  0.00033108  0.44041665     0.84790
C14         C  0.49863497  0.00034667  0.05972490     0.91060
O15         O  0.45435199  0.97078990  0.25012000    -0.72700
O16         O  0.45527789  0.02918727  0.24994486    -0.73680
O17         O  0.45490111  0.99974833  0.20463914    -0.62300
O18         O  0.45540148  0.00012772  0.29544504    -0.70710
O19         O  0.53671488  0.99962911  0.29490402    -0.70260
O20         O  0.53630076  0.00004518  0.20455040    -0.61510
O21         O  0.53657305  0.02913639  0.24998864    -0.74020
O22         O  0.53565611  0.97049791  0.24950226    -0.72800
Cu23       Cu  0.45215523  0.99998008  0.25004755     1.04560
Cu24       Cu  0.53911850  0.99981528  0.24972462     1.04330
C25         C  0.49477704  0.96134755  0.24977335     0.93500
C26         C  0.49591585  0.03846698  0.24998022     0.92640
C27         C  0.49565763  0.99987033  0.19025532     0.84790
C28         C  0.49629212  0.99983353  0.30956236     0.91060
N29         N  0.42379871  0.22324874  0.49818145    -0.27040
N30         N  0.40081935  0.20635858  0.49992585    -0.34900
C31         C  0.35219202  0.20950224  0.50087660     0.01300
C32         C  0.34354725  0.22942547  0.49938361     0.07320
C33         C  0.39017371  0.23762461  0.49777739    -0.05780
H34         H  0.32564214  0.19792565  0.50298526     0.07990
H35         H  0.39929683  0.25292582  0.49627359     0.09190
Cu36       Cu  0.43556430  0.17954236  0.50061008     0.44170
Cu37       Cu  0.49988721  0.22583131  0.49727618     0.41990
Cu38       Cu  0.56663594  0.17980256  0.50289748     0.43880
N39         N  0.47731331  0.15434545  0.50073435    -0.34430
N40         N  0.52568974  0.15439778  0.50192015    -0.28680
C41         C  0.54200311  0.13589414  0.50187405    -0.04780
C42         C  0.50182065  0.12347925  0.50038891     0.07430
C43         C  0.46142927  0.13582848  0.49977855     0.01230
H44         H  0.58030643  0.13196040  0.50332368     0.08880
H45         H  0.42319947  0.13175013  0.49847575     0.07960
N46         N  0.59986405  0.20691959  0.50131745    -0.35880
N47         N  0.57602829  0.22363795  0.49897823    -0.28060
C48         C  0.60887036  0.23826287  0.49815388    -0.03300
C49         C  0.65576127  0.23038680  0.50015727     0.05310
C50         C  0.64831581  0.21044934  0.50205465     0.03410
H51         H  0.59900224  0.25344604  0.49573235     0.08510
H52         H  0.67601688  0.19922683  0.50407738     0.07340
N53         N  0.56680865  0.22328484  0.25127365    -0.27040
N54         N  0.59073973  0.20654687  0.25146389    -0.34900
C55         C  0.63915876  0.21009180  0.25112416     0.01300
C56         C  0.64668683  0.23012359  0.25070511     0.07320
C57         C  0.59948009  0.23794589  0.25079809    -0.05780
H58         H  0.66658673  0.19870836  0.25116130     0.07990
H59         H  0.58878514  0.25308976  0.25048161     0.09190
Cu60       Cu  0.55754803  0.17942553  0.25182266     0.44170
Cu61       Cu  0.49080136  0.22551169  0.25138305     0.41990
Cu62       Cu  0.42664085  0.17936317  0.24571040     0.43880
N63         N  0.51634709  0.15411395  0.25046410    -0.34430
N64         N  0.46816647  0.15412569  0.24766370    -0.28760
C65         C  0.45207823  0.13563231  0.24698122    -0.04780
C66         C  0.49214627  0.12319391  0.24971458     0.07430
C67         C  0.53230826  0.13559217  0.25179118     0.01230
H68         H  0.41396867  0.13178878  0.24423693     0.08880
H69         H  0.57043114  0.13156597  0.25428642     0.07960
N70         N  0.39186624  0.20617022  0.24744593    -0.35880
N71         N  0.41490857  0.22299726  0.25007543    -0.28060
C72         C  0.38142481  0.23739231  0.25135809    -0.03300
C73         C  0.33479844  0.22927601  0.24942698     0.05310
C74         C  0.34325816  0.20938301  0.24682139     0.03410
H75         H  0.39064210  0.25264073  0.25375436     0.08510
H76         H  0.31657530  0.19789659  0.24421932     0.07340
N77         N  0.57628878  0.77712036  0.49863737    -0.27040
N78         N  0.59923648  0.79405052  0.49926502    -0.34900
C79         C  0.64786870  0.79095779  0.49989988     0.01300
C80         C  0.65668399  0.77100883  0.49947371     0.07320
C81         C  0.60998812  0.76277051  0.49871874    -0.05780
H82         H  0.67418249  0.80265972  0.50085184     0.07990
H83         H  0.60075526  0.74745744  0.49817363     0.09190
Cu84       Cu  0.56494176  0.82097103  0.49915440     0.44170
Cu85       Cu  0.50016752  0.77435083  0.49820146     0.41990
Cu86       Cu  0.43466033  0.82049619  0.50366510     0.43880
N87         N  0.52321793  0.84618220  0.49989000    -0.34430
N88         N  0.47496525  0.84596460  0.50208906    -0.28680
C89         C  0.45817384  0.86437810  0.50251354    -0.04780
C90         C  0.49789567  0.87699713  0.50023195     0.07430
C91         C  0.53858280  0.86476669  0.49867903     0.01230
H92         H  0.41981872  0.86802790  0.50477542     0.08880
H93         H  0.57666477  0.86893859  0.49665129     0.07960
N94         N  0.40071904  0.79360257  0.50201213    -0.35880
N95         N  0.42397705  0.77678076  0.49951344    -0.28060
C96         C  0.39053850  0.76238840  0.49837036    -0.03300
C97         C  0.34374551  0.77051104  0.50025574     0.05310
C98         C  0.35215054  0.79040520  0.50267632     0.03410
H99         H  0.39993245  0.74713590  0.49614843     0.08510
H100        H  0.32552643  0.80195555  0.50513123     0.07340
N101        N  0.56960361  0.77677073  0.25017990    -0.27040
N102        N  0.59270131  0.79356348  0.24730152    -0.34900
C103        C  0.64129452  0.79034794  0.24660670     0.01300
C104        C  0.64969711  0.77048215  0.24943224     0.07320
C105        C  0.60306455  0.76237476  0.25154887    -0.05780
H106        H  0.66801832  0.80180587  0.24380312     0.07990
H107        H  0.59385924  0.74714075  0.25414388     0.09190
Cu108      Cu  0.55798335  0.82031004  0.24542183     0.44170
Cu109      Cu  0.49366769  0.77443942  0.25169317     0.41990
Cu110      Cu  0.42704177  0.82075067  0.25165296     0.43880
N111        N  0.51714822  0.84566181  0.24753791    -0.34430
N112        N  0.46894091  0.84593082  0.25035681    -0.28680
C113        C  0.45366919  0.86455551  0.25178270    -0.04780
C114        C  0.49436232  0.87669292  0.24978938     0.07430
C115        C  0.53394679  0.86404585  0.24696519     0.01230
H116        H  0.41569840  0.86884925  0.25429243     0.08880
H117        H  0.57220124  0.86769901  0.24418080     0.07960
N118        N  0.39380250  0.79359221  0.25141538    -0.35880
N119        N  0.41768366  0.77683617  0.25148214    -0.28060
C120        C  0.38498622  0.76218573  0.25110388    -0.03300
C121        C  0.33780402  0.77001462  0.25076528     0.05310
C122        C  0.34537030  0.79005087  0.25096833     0.03410
H123        H  0.39566084  0.74703808  0.25107797     0.08510
H124        H  0.31794890  0.80143599  0.25074883     0.07340
N125        N  0.92435390  0.72333641  0.50099921    -0.27040
N126        N  0.90125865  0.70646367  0.49976704    -0.34900
C127        C  0.85266724  0.70960452  0.49913879     0.01300
C128        C  0.84400029  0.72954549  0.50023148     0.07320
C129        C  0.89075768  0.73773059  0.50133560    -0.05780
H130        H  0.82628496  0.69794591  0.49770602     0.07990
H131        H  0.90006229  0.75302552  0.50242212     0.09190
Cu132      Cu  0.93550574  0.67961469  0.49933495     0.44170
Cu133      Cu  0.00056171  0.72569540  0.50170526     0.41990
Cu134      Cu  0.06589433  0.67897338  0.49813872     0.43880
N135        N  0.97582913  0.65412800  0.49940462    -0.34430
N136        N  0.02416700  0.65379325  0.49878672    -0.28680
C137        C  0.03944671  0.63516258  0.49892808    -0.04780
C138        C  0.99858073  0.62299832  0.49969086     0.07430
C139        C  0.95886176  0.63577782  0.50002790     0.01230
H140        H  0.07764487  0.63095276  0.49845927     0.08880
H141        H  0.92028653  0.63238135  0.50080081     0.07960
N142        N  0.09981161  0.70594582  0.49900958    -0.35880
N143        N  0.07669816  0.72284886  0.50072531    -0.28060
C144        C  0.11025845  0.73720501  0.50132684    -0.03300
C145        C  0.15699645  0.72900632  0.49988526     0.05310
C146        C  0.14841844  0.70908162  0.49831792     0.03410
H147        H  0.10094065  0.75249772  0.50286373     0.08510
H148        H  0.17493807  0.69745248  0.49645729     0.07340
N149        N  0.91632872  0.72285396  0.24966197    -0.27040
N150        N  0.89340101  0.70599076  0.25221462    -0.34900
C151        C  0.84476117  0.70914834  0.25289765     0.01300
C152        C  0.83617885  0.72902922  0.25041220     0.07320
C153        C  0.88273838  0.73720389  0.24848948    -0.05780
H154        H  0.81812377  0.69763713  0.25546428     0.07990
H155        H  0.89184243  0.75246575  0.24616838     0.09190
Cu156      Cu  0.92820719  0.67917766  0.25382979     0.44170
Cu157      Cu  0.99218953  0.72561415  0.24831448     0.41990
Cu158      Cu  0.05914898  0.67980924  0.24800881     0.43880
N159        N  0.97043832  0.65409498  0.25207854    -0.34430
N160        N  0.01864793  0.65435053  0.24938340    -0.28680
C161        C  0.03539500  0.63593963  0.24810420    -0.04780
C162        C  0.99572381  0.62329213  0.25033116     0.07430
C163        C  0.95510950  0.63549708  0.25274793     0.01230
H164        H  0.07367315  0.63231105  0.24529473     0.08880
H165        H  0.91707777  0.63129749  0.25498452     0.07960
N166        N  0.09227860  0.70691408  0.24840540    -0.35880
N167        N  0.06824051  0.72362281  0.24847955    -0.28060
C168        C  0.10082528  0.73831949  0.24893100    -0.03300
C169        C  0.14808287  0.73053558  0.24916780     0.05310
C170        C  0.14066552  0.71049661  0.24883532     0.03410
H171        H  0.09006024  0.75345781  0.24908077     0.08510
H172        H  0.16813982  0.69913129  0.24894250     0.07340
N173        N  0.07643362  0.27704466  0.50135219    -0.27040
N174        N  0.09941967  0.29389716  0.49879570    -0.34900
C175        C  0.14804759  0.29071682  0.49787385     0.01300
C176        C  0.15663841  0.27082865  0.50022280     0.07320
C177        C  0.11003478  0.26267399  0.50229510    -0.05780
H178        H  0.17467764  0.30222233  0.49521285     0.07990
H179        H  0.10092662  0.24740631  0.50450924     0.09190
Cu180      Cu  0.06473895  0.32074299  0.49733999     0.44170
Cu181      Cu  0.00037705  0.27439241  0.50272433     0.41990
Cu182      Cu  0.93356583  0.32031949  0.49886478     0.43880
N183        N  0.02275258  0.34590534  0.49842063    -0.34430
N184        N  0.97432241  0.34574465  0.49917678    -0.28680
C185        C  0.95774650  0.36419927  0.50018398    -0.04780
C186        C  0.99779119  0.37666140  0.50012138     0.07430
C187        C  0.03840710  0.36447198  0.49886709     0.01230
H188        H  0.91933956  0.36813964  0.50035005     0.08880
H189        H  0.07659015  0.36872914  0.49862314     0.07960
N190        N  0.90032991  0.29322119  0.49964127    -0.35880
N191        N  0.92420430  0.27648541  0.50135750    -0.28060
C192        C  0.89138639  0.26184265  0.50171665    -0.03300
C193        C  0.84445803  0.26973576  0.50003073     0.05310
C194        C  0.85189253  0.28969853  0.49880797     0.03410
H195        H  0.90131448  0.24663494  0.50360002     0.08510
H196        H  0.82420932  0.30095458  0.49718302     0.07340
N197        N  0.06822217  0.27707861  0.24978384    -0.27040
N198        N  0.09116800  0.29394332  0.25219204    -0.34900
C199        C  0.13980129  0.29077625  0.25281215     0.01300
C200        C  0.14837408  0.27087727  0.25044009     0.07320
C201        C  0.10178890  0.26271347  0.24863812    -0.05780
H202        H  0.16641969  0.30230064  0.25525125     0.07990
H203        H  0.09263818  0.24744781  0.24642802     0.09190
Cu204      Cu  0.05629739  0.32074616  0.25372247     0.44170
Cu205      Cu  0.99235389  0.27437923  0.24858523     0.41990
Cu206      Cu  0.92539029  0.32026724  0.24782749     0.43880
N207        N  0.01424126  0.34586062  0.25198837    -0.34430
N208        N  0.96605384  0.34569075  0.24927922    -0.28680
C209        C  0.94954785  0.36413851  0.24803409    -0.04780
C210        C  0.98937674  0.37670636  0.25027911     0.07430
C211        C  0.02979547  0.36442314  0.25269309     0.01230
H212        H  0.91134327  0.36785178  0.24523048     0.08880
H213        H  0.06786006  0.36854313  0.25495041     0.07960
N214        N  0.89230027  0.29314984  0.24832412    -0.35880
N215        N  0.91631259  0.27643523  0.24865285    -0.28060
C216        C  0.88369985  0.26175023  0.24921033    -0.03300
C217        C  0.83645554  0.26954549  0.24920867     0.05310
C218        C  0.84390408  0.28957856  0.24865245     0.03410
H219        H  0.89444091  0.24661224  0.24965257     0.08510
H220        H  0.81644347  0.30094850  0.24850678     0.07340
O221        O  0.95869049  0.52899242  0.49999510    -0.72700
O222        O  0.95774332  0.47042031  0.50117302    -0.73680
O223        O  0.95784878  0.50027310  0.04577879    -0.62300
O224        O  0.95780154  0.49939336  0.45518758    -0.70710
O225        O  0.03906529  0.49982986  0.45472104    -0.70260
O226        O  0.03933107  0.49891240  0.04572815    -0.61510
O227        O  0.03908767  0.47025159  0.49936552    -0.74020
O228        O  0.03995541  0.52868466  0.50087841    -0.72800
Cu229      Cu  0.95521500  0.49976425  0.50053211     1.04560
Cu230      Cu  0.04220936  0.49941821  0.50018145     1.04330
C231        C  0.99953118  0.53814551  0.50044589     0.93500
C232        C  0.99836690  0.46107055  0.50017720     0.92640
C233        C  0.99849758  0.49960689  0.05998366     0.84790
C234        C  0.99826099  0.49963542  0.44050844     0.91060
O235        O  0.95313139  0.52933675  0.24957596    -0.72700
O236        O  0.95255913  0.47088892  0.24923356    -0.73680
O237        O  0.95294751  0.50005904  0.29493677    -0.62300
O238        O  0.95331925  0.50035630  0.20389294    -0.70710
O239        O  0.03484266  0.49953261  0.20410656    -0.70260
O240        O  0.03421803  0.49999978  0.29467800    -0.61510
O241        O  0.03384997  0.47058160  0.24955793    -0.74020
O242        O  0.03442567  0.52915861  0.24921388    -0.72800
Cu243      Cu  0.95014135  0.50015635  0.24940832     1.04560
Cu244      Cu  0.03712705  0.49982572  0.24939173     1.04330
C245        C  0.99382383  0.53855130  0.24937192     0.93500
C246        C  0.99302319  0.46143209  0.24938175     0.92640
C247        C  0.99366736  0.50002836  0.30925460     0.84790
C248        C  0.99428688  0.49992791  0.18977132     0.91060
C249        C  0.95241318  0.50069460  0.39154444    -0.21060
C250        C  0.99748370  0.49973205  0.40691894    -0.09100
C251        C  0.04111909  0.49889863  0.38981154     0.29760
C252        C  0.03939383  0.49902660  0.35822878    -0.21060
C253        C  0.99433199  0.49997805  0.34284711    -0.09110
C254        C  0.95069106  0.50083087  0.35994882     0.29760
F255        F  0.90620787  0.50186518  0.34631078    -0.19640
H256        H  0.91818412  0.50139464  0.40398186     0.18130
H257        H  0.07363763  0.49832682  0.34580648     0.18140
F258        F  0.08561963  0.49786636  0.40343086    -0.19620
C259        C  0.98413679  0.51660853  0.10880198    -0.21060
C260        C  0.99801354  0.49968137  0.09314096    -0.09100
C261        C  0.01019589  0.48279334  0.10934434     0.29760
C262        C  0.00886763  0.48294059  0.14096016    -0.21060
C263        C  0.99499771  0.49986881  0.15661798    -0.09110
C264        C  0.98281700  0.51675697  0.14041573     0.29760
F265        F  0.97075058  0.53344599  0.15520315    -0.19640
H266        H  0.97473673  0.52973398  0.09650387     0.18130
H267        H  0.01821291  0.46980988  0.15325994     0.18140
F268        F  0.02216267  0.46609416  0.09455625    -0.19620
C269        C  0.03412129  0.40848717  0.24575630    -0.21060
C270        C  0.98960920  0.39844240  0.24990908    -0.09100
C271        C  0.94628547  0.40946142  0.25387326     0.29760
C272        C  0.94781310  0.42982925  0.25346253    -0.21060
C273        C  0.99235202  0.43979583  0.24943836    -0.09110
C274        C  0.03566647  0.42884727  0.24563128     0.29760
F275        F  0.07967182  0.43771372  0.24151068    -0.19640
H276        H  0.06814749  0.40066290  0.24234683     0.18130
H277        H  0.91389032  0.43781500  0.25668737     0.18140
F278        F  0.90235279  0.40080144  0.25889713    -0.19620
C279        C  0.03716671  0.40854318  0.48770406    -0.21060
C280        C  0.99763411  0.39828533  0.50046447    -0.09100
C281        C  0.95849705  0.40890860  0.01332075     0.29760
C282        C  0.95880210  0.42929236  0.01288432    -0.21060
C283        C  0.99831108  0.43950679  0.50008403    -0.09110
C284        C  0.03765761  0.42891104  0.48750626     0.29760
F285        F  0.07607215  0.43818750  0.47428072    -0.19640
H286        H  0.06754704  0.40080782  0.47738172     0.18130
H287        H  0.92842922  0.43711245  0.02309713     0.18140
F288        F  0.92063791  0.39971522  0.02722061    -0.19620
C289        C  0.95160409  0.59136272  0.24585281    -0.21060
C290        C  0.99588283  0.60155334  0.24996094    -0.09100
C291        C  0.03940348  0.59067397  0.25387109     0.29760
C292        C  0.03832272  0.57030380  0.25341655    -0.21060
C293        C  0.99404439  0.56018944  0.24942123    -0.09110
C294        C  0.95049495  0.57099544  0.24569414     0.29760
F295        F  0.90667675  0.56198704  0.24163600    -0.19640
H296        H  0.91743703  0.59907788  0.24251156     0.18130
H297        H  0.07238437  0.56243239  0.25659755     0.18140
F298        F  0.08311939  0.59947240  0.25889697    -0.19620
C299        C  0.04286458  0.59084987  0.00107737    -0.21060
C300        C  0.99821830  0.60120736  0.50003161    -0.09100
C301        C  0.95414284  0.59039815  0.49920777     0.29760
C302        C  0.95513571  0.57003897  0.49944374    -0.21060
C303        C  0.99972601  0.55979028  0.50040869    -0.09110
C304        C  0.04377688  0.57047196  0.00122170     0.29760
F305        F  0.08796897  0.56133680  0.00214795    -0.19640
H306        H  0.07759298  0.59839761  0.00181730     0.18130
H307        H  0.92058076  0.56228312  0.49875239     0.18140
F308        F  0.90966360  0.59918254  0.49794908    -0.19620
C309        C  0.24562227  0.77051574  0.25057587    -0.21060
C310        C  0.28952808  0.75967967  0.25032986    -0.09100
C311        C  0.28604322  0.73917841  0.24970867     0.29760
C312        C  0.24023946  0.73005173  0.24937117    -0.21060
C313        C  0.19633253  0.74088528  0.24961453    -0.09110
C314        C  0.19980690  0.76138461  0.25023174     0.29760
F315        F  0.15940147  0.77290465  0.25055547    -0.19640
H316        H  0.24613790  0.78625728  0.25108577     0.18130
H317        H  0.23975306  0.71431054  0.24886674     0.18140
F318        F  0.32642092  0.72764314  0.24935788    -0.19620
C319        C  0.69911708  0.73980768  0.24488959    -0.21060
C320        C  0.69765281  0.76003871  0.24979159    -0.09100
C321        C  0.74225224  0.76988283  0.25497351     0.29760
C322        C  0.78668711  0.75968420  0.25509177    -0.21060
C323        C  0.78817120  0.73945266  0.25015670    -0.09110
C324        C  0.74355932  0.72960788  0.24500309     0.29760
F325        F  0.74233411  0.71020578  0.23928577    -0.19640
H326        H  0.66583730  0.73174509  0.24044603     0.18130
H327        H  0.81994379  0.76775759  0.25954361     0.18140
F328        F  0.74346609  0.78928433  0.26071669    -0.19620
C329        C  0.29456676  0.73968408  0.00293856    -0.21060
C330        C  0.29569253  0.76006847  0.50001404    -0.09100
C331        C  0.25062764  0.77002980  0.49690617     0.29760
C332        C  0.20626798  0.75981458  0.49688859    -0.21060
C333        C  0.20511400  0.73942679  0.49988641    -0.09110
C334        C  0.25020740  0.72946489  0.00290266     0.29760
F335        F  0.25222619  0.70987071  0.00637486    -0.19640
H336        H  0.32809620  0.73144202  0.00565559     0.18130
H337        H  0.17276945  0.76807283  0.49417470     0.18140
F338        F  0.24866593  0.78961793  0.49329730    -0.19620
C339        C  0.70621120  0.74018459  0.00219126    -0.21060
C340        C  0.70494785  0.76060450  0.49977475    -0.09100
C341        C  0.75008725  0.77059746  0.49758964     0.29760
C342        C  0.79452787  0.76038423  0.49776221    -0.21060
C343        C  0.79577528  0.73996489  0.50012203    -0.09110
C344        C  0.75064778  0.72997385  0.00239100     0.29760
F345        F  0.74857541  0.71034015  0.00520718    -0.19640
H346        H  0.67272814  0.73186477  0.00416591     0.18130
H347        H  0.82803312  0.76869193  0.49578062     0.18140
F348        F  0.75217554  0.79023677  0.49491906    -0.19620
C349        C  0.73885078  0.22959438  0.24997638    -0.21060
C350        C  0.69496888  0.24044654  0.25028836    -0.09100
C351        C  0.69848760  0.26094728  0.25026824     0.29760
C352        C  0.74430843  0.27006099  0.24997268    -0.21060
C353        C  0.78819091  0.25921109  0.24965213    -0.09110
C354        C  0.78467896  0.23871058  0.24967377     0.29760
F355        F  0.82505525  0.22717379  0.24935765    -0.19640
H356        H  0.73831487  0.21385043  0.24994773     0.18130
H357        H  0.74482856  0.28580453  0.25000953     0.18140
F358        F  0.65812647  0.27249217  0.25056081    -0.19620
C359        C  0.28552466  0.26001011  0.24516214    -0.21060
C360        C  0.28683992  0.23975347  0.24976987    -0.09100
C361        C  0.24209207  0.22993155  0.25466797     0.29760
C362        C  0.19770415  0.24016776  0.25481085    -0.21060
C363        C  0.19637310  0.26042227  0.25017497    -0.09110
C364        C  0.24112983  0.27024843  0.24530513     0.29760
F365        F  0.24258498  0.28967711  0.23992951    -0.19640
H366        H  0.31889319  0.26807866  0.24094883     0.18130
H367        H  0.16435255  0.23209185  0.25903205     0.18140
F368        F  0.24064366  0.21050603  0.26007632    -0.19620
C369        C  0.74659130  0.23054595  0.49153340    -0.21060
C370        C  0.70376816  0.24066517  0.49998198    -0.09100
C371        C  0.70782108  0.26038232  0.00845716     0.29760
C372        C  0.75356233  0.26958807  0.00842053    -0.21060
C373        C  0.79641260  0.25946751  0.50000419    -0.09110
C374        C  0.79233629  0.23975813  0.49146485     0.29760
F375        F  0.83205813  0.22940772  0.48218079    -0.19640
H376        H  0.74477891  0.21545819  0.48444960     0.18130
H377        H  0.75532546  0.28466751  0.01554046     0.18140
F378        F  0.66807699  0.27073107  0.01771598    -0.19620
C379        C  0.20618211  0.24017961  0.49513988    -0.21060
C380        C  0.20470932  0.26040015  0.50016311    -0.09100
C381        C  0.24941358  0.27023753  0.00507799     0.29760
C382        C  0.29391277  0.26005486  0.00478763    -0.21060
C383        C  0.29541590  0.23983425  0.49968525    -0.09110
C384        C  0.25066899  0.22999421  0.49485102     0.29760
F385        F  0.24927417  0.21060064  0.48910028    -0.19640
H386        H  0.17285016  0.23210192  0.49092366     0.18130
H387        H  0.32722142  0.26814417  0.00900137     0.18140
F388        F  0.25070215  0.28962571  0.01090717    -0.19620
C389        C  0.45107500  0.07015716  0.25450265    -0.21060
C390        C  0.49547943  0.06010790  0.25005392    -0.09100
C391        C  0.53870058  0.07097748  0.24572483     0.29760
C392        C  0.53712618  0.09135466  0.24559640    -0.21060
C393        C  0.49266862  0.10146302  0.24998646    -0.09110
C394        C  0.44952616  0.09051790  0.25466804     0.29760
F395        F  0.40575248  0.09925711  0.26015238    -0.19640
H396        H  0.41724591  0.06224220  0.25820586     0.18130
H397        H  0.57100318  0.09914893  0.24171676     0.18140
F398        F  0.58256176  0.06201279  0.24123448    -0.19620
C399        C  0.53776377  0.92936179  0.25559006    -0.21060
C400        C  0.49433241  0.93972431  0.24980015    -0.09100
C401        C  0.45093387  0.92918606  0.24427904     0.29760
C402        C  0.45140939  0.90881008  0.24432663    -0.21060
C403        C  0.49488686  0.89839417  0.25005452    -0.09110
C404        C  0.53816292  0.90899056  0.25594945     0.29760
F405        F  0.58082289  0.89987697  0.26290965    -0.19640
H406        H  0.57158645  0.93704099  0.26028952     0.18130
H407        H  0.41754400  0.90124018  0.23948378     0.18140
F408        F  0.40800934  0.93847740  0.23837015    -0.19620
C409        C  0.45400878  0.00450743  0.35922748    -0.21060
C410        C  0.49684784  0.99982665  0.34303198    -0.09100
C411        C  0.53988385  0.99530575  0.35917603     0.29760
C412        C  0.53982398  0.99559065  0.39074723    -0.21060
C413        C  0.49699828  0.00028910  0.40694561    -0.09110
C414        C  0.45394826  0.00479139  0.39080190     0.29760
F415        F  0.41187550  0.00979351  0.40538817    -0.19640
H416        H  0.42046982  0.00816813  0.34744336     0.18130
H417        H  0.57336835  0.99192986  0.40252590     0.18140
F418        F  0.58194829  0.99028885  0.34459117    -0.19620
C419        C  0.53635533  0.00787832  0.14130463    -0.21060
C420        C  0.49611654  0.99991961  0.15688065    -0.09100
C421        C  0.45692573  0.99204487  0.14026513     0.29760
C422        C  0.45804169  0.99229133  0.10869684    -0.21060
C423        C  0.49825805  0.00026777  0.09311070    -0.09110
C424        C  0.53746729  0.00813149  0.10973349     0.29760
F425        F  0.57624601  0.01654846  0.09555948    -0.19640
H426        H  0.56676833  0.01418203  0.15360695     0.18130
H427        H  0.42762224  0.98598224  0.09640790     0.18140
F428        F  0.41816681  0.98362061  0.15445185    -0.19620
C429        C  0.45832389  0.09172788  0.00810586    -0.21060
C430        C  0.50136419  0.10179101  0.50007231    -0.09100
C431        C  0.54315787  0.09087530  0.49176620     0.29760
C432        C  0.54180671  0.07050678  0.49200124    -0.21060
C433        C  0.49880084  0.06048801  0.50009412    -0.09110
C434        C  0.45686484  0.07135820  0.00805281     0.29760
F435        F  0.41457954  0.06238315  0.01635838    -0.19640
H436        H  0.42563543  0.09957679  0.01487419     0.18130
H437        H  0.57449863  0.06255643  0.48541317     0.18140
F438        F  0.58509192  0.09970281  0.48256397    -0.19620
C439        C  0.54179112  0.90901858  0.00420500    -0.21060
C440        C  0.49766435  0.89873626  0.49995741    -0.09100
C441        C  0.45416307  0.90952819  0.49545184     0.29760
C442        C  0.45504481  0.92989743  0.49565713    -0.21060
C443        C  0.49911123  0.94010686  0.49996599    -0.09110
C444        C  0.54270766  0.92939257  0.00410552     0.29760
F445        F  0.58634080  0.93849620  0.00838447    -0.19640
H446        H  0.57594792  0.90137118  0.00792779     0.18130
H447        H  0.42096909  0.93769206  0.49210757     0.18140
F448        F  0.41064572  0.90064246  0.49014721    -0.19620
O449        O  0.45820864  0.97100349  0.99966019    -0.72700
O450        O  0.45773815  0.02960331  0.00097298    -0.73680
O451        O  0.45725718  0.00067350  0.95512459    -0.62300
O452        O  0.45795557  0.99985374  0.54547516    -0.70710
O453        O  0.53931209  0.00080099  0.54528315    -0.70260
O454        O  0.53855683  0.99994760  0.95448706    -0.61510
O455        O  0.53901129  0.02955056  0.49929205    -0.74020
O456        O  0.53947008  0.97111052  0.50040686    -0.72800
Cu457      Cu  0.45499179  0.00028514  0.00032009     1.04560
Cu458      Cu  0.54192381  0.00034996  0.49985881     1.04330
C459        C  0.49899052  0.96175195  0.00002580     0.93500
C460        C  0.49839125  0.03886989  0.50014996     0.92640
C461        C  0.49763196  0.00033375  0.94041666     0.84790
C462        C  0.49862298  0.00034391  0.55972491     0.91060
O463        O  0.45435192  0.97078981  0.75012149    -0.72700
O464        O  0.45527780  0.02918719  0.74994575    -0.73680
O465        O  0.45489736  0.99974795  0.70464036    -0.62300
O466        O  0.45540498  0.00012788  0.79544620    -0.70710
O467        O  0.53671835  0.99962927  0.79490300    -0.70260
O468        O  0.53629701  0.00004480  0.70454937    -0.61510
O469        O  0.53657295  0.02913631  0.74998732    -0.74020
O470        O  0.53565603  0.97049784  0.74950153    -0.72800
Cu471      Cu  0.45215513  0.99997998  0.75004883     1.04560
Cu472      Cu  0.53911839  0.99981519  0.74972351     1.04330
C473        C  0.49477697  0.96134748  0.74977371     0.93500
C474        C  0.49591576  0.03846691  0.74998002     0.92640
C475        C  0.49565283  0.99986975  0.69025540     0.84790
C476        C  0.49629663  0.99983387  0.80956242     0.91060
N477        N  0.42379850  0.22325070  0.99818120    -0.27040
N478        N  0.40081948  0.20636047  0.99992582    -0.34900
C479        C  0.35219216  0.20950393  0.00087668     0.01300
C480        C  0.34354702  0.22942709  0.99938351     0.07320
C481        C  0.39017320  0.23762644  0.99777710    -0.05780
H482        H  0.32564259  0.19792725  0.00298559     0.07990
H483        H  0.39929593  0.25292768  0.99627314     0.09190
Cu484      Cu  0.43556399  0.17954433  0.00061017     0.44170
Cu485      Cu  0.49988679  0.22583367  0.99727584     0.41990
Cu486      Cu  0.56663445  0.17980512  0.00289921     0.43880
N487        N  0.47731322  0.15434763  0.00073468    -0.34430
N488        N  0.52568955  0.15440031  0.00192124    -0.28680
C489        C  0.54200395  0.13589687  0.00187495    -0.04780
C490        C  0.50182226  0.12348173  0.00038884     0.07430
C491        C  0.46143015  0.13583055  0.99977820     0.01230
H492        H  0.58030742  0.13196343  0.00332509     0.08880
H493        H  0.42320064  0.13175185  0.99847471     0.07960
N494        N  0.59986293  0.20692179  0.00131820    -0.35880
N495        N  0.57602769  0.22364020  0.99897815    -0.28060
C496        C  0.60887026  0.23826492  0.99815327    -0.03300
C497        C  0.65576078  0.23038856  0.00015717     0.05310
C498        C  0.64831473  0.21045123  0.00205538     0.03410
H499        H  0.59900277  0.25344811  0.99573110     0.08510
H500        H  0.67601538  0.19922860  0.00407873     0.07340
N501        N  0.56680864  0.22328484  0.75127368    -0.27040
N502        N  0.59073973  0.20654687  0.75146385    -0.34900
C503        C  0.63915875  0.21009181  0.75112411     0.01300
C504        C  0.64668682  0.23012359  0.75070511     0.07320
C505        C  0.59948008  0.23794589  0.75079815    -0.05780
H506        H  0.66658673  0.19870837  0.75116120     0.07990
H507        H  0.58878512  0.25308976  0.75048172     0.09190
Cu508      Cu  0.55754803  0.17942552  0.75182258     0.44170
Cu509      Cu  0.49080135  0.22551170  0.75138312     0.41990
Cu510      Cu  0.42664085  0.17936316  0.74571050     0.43880
N511        N  0.51634710  0.15411392  0.75046406    -0.34430
N512        N  0.46816647  0.15412567  0.74766374    -0.28760
C513        C  0.45207822  0.13563228  0.74698131    -0.04780
C514        C  0.49214627  0.12319388  0.74971461     0.07430
C515        C  0.53230827  0.13559215  0.75179113     0.01230
H516        H  0.41396864  0.13178876  0.74423708     0.08880
H517        H  0.57043116  0.13156595  0.75428632     0.07960
N518        N  0.39186624  0.20617022  0.74744603    -0.35880
N519        N  0.41490857  0.22299725  0.75007552    -0.28060
C520        C  0.38142480  0.23739231  0.75135816    -0.03300
C521        C  0.33479843  0.22927601  0.74942705     0.05310
C522        C  0.34325816  0.20938300  0.74682148     0.03410
H523        H  0.39064210  0.25264072  0.75375441     0.08510
H524        H  0.31657530  0.19789658  0.74421942     0.07340
N525        N  0.57628905  0.77712192  0.99863776    -0.27040
N526        N  0.59923734  0.79405194  0.99926556    -0.34900
C527        C  0.64786947  0.79095895  0.99990028     0.01300
C528        C  0.65668419  0.77100994  0.99947385     0.07320
C529        C  0.60998797  0.76277187  0.99871888    -0.05780
H530        H  0.67418362  0.80266075  0.00085233     0.07990
H531        H  0.60075466  0.74745885  0.99817363     0.09190
Cu532      Cu  0.56494307  0.82097255  0.99915528     0.44170
Cu533      Cu  0.50016744  0.77435320  0.99820192     0.41990
Cu534      Cu  0.43466027  0.82049922  0.00366317     0.43880
N535        N  0.52322107  0.84618422  0.99989049    -0.34430
N536        N  0.47496818  0.84596733  0.00208832    -0.28680
C537        C  0.45817883  0.86438116  0.00251267    -0.04780
C538        C  0.49790221  0.87699963  0.00023227     0.07430
C539        C  0.53858801  0.86476847  0.99868021     0.01230
H540        H  0.41982393  0.86803155  0.00477354     0.08880
H541        H  0.57667057  0.86893972  0.99665344     0.07960
N542        N  0.40071855  0.79360527  0.00201107    -0.35880
N543        N  0.42397684  0.77678342  0.99951348    -0.28060
C544        C  0.39053861  0.76239091  0.99837107    -0.03300
C545        C  0.34374532  0.77051333  0.00025573     0.05310
C546        C  0.35214999  0.79040765  0.00267517     0.03410
H547        H  0.39993305  0.74713841  0.99615007     0.08510
H548        H  0.32552551  0.80195795  0.00512914     0.07340
N549        N  0.56960359  0.77677072  0.75017989    -0.27040
N550        N  0.59270130  0.79356347  0.74730156    -0.34900
C551        C  0.64129451  0.79034794  0.74660676     0.01300
C552        C  0.64969709  0.77048215  0.74943228     0.07320
C553        C  0.60306454  0.76237475  0.75154887    -0.05780
H554        H  0.66801831  0.80180587  0.74380323     0.07990
H555        H  0.59385922  0.74714074  0.75414385     0.09190
Cu556      Cu  0.55798334  0.82031002  0.74542187     0.44170
Cu557      Cu  0.49366767  0.77443942  0.75169312     0.41990
Cu558      Cu  0.42704174  0.82075067  0.75165302     0.43880
N559        N  0.51714821  0.84566179  0.74753792    -0.34430
N560        N  0.46894090  0.84593080  0.75035683    -0.28680
C561        C  0.45366920  0.86455549  0.75178269    -0.04780
C562        C  0.49436234  0.87669289  0.74978934     0.07430
C563        C  0.53394680  0.86404581  0.74696517     0.01230
H564        H  0.41569842  0.86884923  0.75429243     0.08880
H565        H  0.57220125  0.86769897  0.74418077     0.07960
N566        N  0.39380248  0.79359221  0.75141543    -0.35880
N567        N  0.41768364  0.77683617  0.75148213    -0.28060
C568        C  0.38498620  0.76218573  0.75110387    -0.03300
C569        C  0.33780399  0.77001463  0.75076534     0.05310
C570        C  0.34537027  0.79005088  0.75096842     0.03410
H571        H  0.39566081  0.74703809  0.75107791     0.08510
H572        H  0.31794888  0.80143600  0.75074897     0.07340
N573        N  0.92435386  0.72333673  0.00099902    -0.27040
N574        N  0.90125839  0.70646402  0.99976709    -0.34900
C575        C  0.85266695  0.70960495  0.99913899     0.01300
C576        C  0.84400014  0.72954595  0.00023149     0.07320
C577        C  0.89075772  0.73773096  0.00133539    -0.05780
H578        H  0.82628449  0.69794639  0.99770645     0.07990
H579        H  0.90006250  0.75302588  0.00242171     0.09190
Cu580      Cu  0.93550568  0.67961502  0.99933498     0.44170
Cu581      Cu  0.00056204  0.72569553  0.00170488     0.41990
Cu582      Cu  0.06589543  0.67897374  0.99813913     0.43880
N583        N  0.97582955  0.65412837  0.99940464    -0.34430
N584        N  0.02416747  0.65379362  0.99878692    -0.28680
C585        C  0.03944707  0.63516291  0.99892828    -0.04780
C586        C  0.99858105  0.62299865  0.99969087     0.07430
C587        C  0.95886214  0.63577818  0.00002780     0.01230
H588        H  0.07764522  0.63095307  0.99845962     0.08880
H589        H  0.92028690  0.63238172  0.00080053     0.07960
N590        N  0.09981283  0.70594632  0.99900985    -0.35880
N591        N  0.07669891  0.72284928  0.00072517    -0.28060
C592        C  0.11025885  0.73720558  0.00132657    -0.03300
C593        C  0.15699721  0.72900714  0.99988534     0.05310
C594        C  0.14841967  0.70908235  0.99831837     0.03410
H595        H  0.10094057  0.75249826  0.00286312     0.08510
H596        H  0.17493971  0.69745333  0.99645818     0.07340
N597        N  0.91632871  0.72285398  0.74966198    -0.27040
N598        N  0.89340101  0.70599077  0.75221464    -0.34900
C599        C  0.84476117  0.70914834  0.75289769     0.01300
C600        C  0.83617884  0.72902923  0.75041225     0.07320
C601        C  0.88273836  0.73720390  0.74848951    -0.05780
H602        H  0.81812378  0.69763714  0.75546434     0.07990
H603        H  0.89184241  0.75246576  0.74616841     0.09190
Cu604      Cu  0.92820720  0.67917767  0.75382979     0.44170
Cu605      Cu  0.99218951  0.72561417  0.74831446     0.41990
Cu606      Cu  0.05914896  0.67980925  0.74800868     0.43880
N607        N  0.97043832  0.65409499  0.75207849    -0.34430
N608        N  0.01864793  0.65435054  0.74938330    -0.28680
C609        C  0.03539499  0.63593964  0.74810410    -0.04780
C610        C  0.99572380  0.62329214  0.75033111     0.07430
C611        C  0.95510950  0.63549710  0.75274790     0.01230
H612        H  0.07367313  0.63231105  0.74529458     0.08880
H613        H  0.91707777  0.63129751  0.75498455     0.07960
N614        N  0.09227858  0.70691409  0.74840532    -0.35880
N615        N  0.06824049  0.72362282  0.74847953    -0.28060
C616        C  0.10082526  0.73831950  0.74893104    -0.03300
C617        C  0.14808285  0.73053560  0.74916782     0.05310
C618        C  0.14066550  0.71049662  0.74883527     0.03410
H619        H  0.09006022  0.75345782  0.74908088     0.08510
H620        H  0.16813980  0.69913131  0.74894241     0.07340
N621        N  0.07643300  0.27704507  0.00135239    -0.27040
N622        N  0.09941872  0.29389762  0.99879559    -0.34900
C623        C  0.14804662  0.29071743  0.99787362     0.01300
C624        C  0.15663770  0.27082932  0.00022285     0.07320
C625        C  0.11003434  0.26267450  0.00229541    -0.05780
H626        H  0.17467643  0.30222300  0.99521232     0.07990
H627        H  0.10092649  0.24740681  0.00450981     0.09190
Cu628      Cu  0.06473811  0.32074335  0.99733979     0.44170
Cu629      Cu  0.00037682  0.27439259  0.00272472     0.41990
Cu630      Cu  0.93356602  0.32031982  0.99886462     0.43880
N631        N  0.02275224  0.34590570  0.99842054    -0.34430
N632        N  0.97432210  0.34574502  0.99917669    -0.28680
C633        C  0.95774619  0.36419962  0.00018393    -0.04780
C634        C  0.99779093  0.37666172  0.00012138     0.07430
C635        C  0.03840682  0.36447232  0.99886707     0.01230
H636        H  0.91933925  0.36814000  0.00035000     0.08880
H637        H  0.07658989  0.36872946  0.99862313     0.07960
N638        N  0.90033034  0.29322157  0.99964115    -0.35880
N639        N  0.92420446  0.27648574  0.00135762    -0.28060
C640        C  0.89138640  0.26184305  0.00171682    -0.03300
C641        C  0.84445828  0.26973630  0.00003069     0.05310
C642        C  0.85189299  0.28969903  0.99880772     0.03410
H643        H  0.90131421  0.24663532  0.00360038     0.08510
H644        H  0.82420997  0.30095514  0.99718258     0.07340
N645        N  0.06822216  0.27707863  0.74978385    -0.27040
N646        N  0.09116798  0.29394333  0.75219207    -0.34900
C647        C  0.13980127  0.29077626  0.75281219     0.01300
C648        C  0.14837407  0.27087728  0.75044011     0.07320
C649        C  0.10178889  0.26271348  0.74863811    -0.05780
H650        H  0.16641967  0.30230065  0.75525131     0.07990
H651        H  0.09263816  0.24744783  0.74642800     0.09190
Cu652      Cu  0.05629737  0.32074617  0.75372251     0.44170
Cu653      Cu  0.99235387  0.27437924  0.74858521     0.41990
Cu654      Cu  0.92539029  0.32026726  0.74782742     0.43880
N655        N  0.01424125  0.34586063  0.75198838    -0.34430
N656        N  0.96605384  0.34569077  0.74927919    -0.28680
C657        C  0.94954785  0.36413852  0.74803405    -0.04780
C658        C  0.98937673  0.37670637  0.75027911     0.07430
C659        C  0.02979546  0.36442316  0.75269313     0.01230
H660        H  0.91134328  0.36785180  0.74523041     0.08880
H661        H  0.06786004  0.36854314  0.75495049     0.07960
N662        N  0.89230025  0.29314985  0.74832406    -0.35880
N663        N  0.91631257  0.27643524  0.74865282    -0.28060
C664        C  0.88369984  0.26175024  0.74921031    -0.03300
C665        C  0.83645552  0.26954551  0.74920863     0.05310
C666        C  0.84390406  0.28957857  0.74865239     0.03410
H667        H  0.89444090  0.24661225  0.74965258     0.08510
H668        H  0.81644345  0.30094852  0.74850671     0.07340
O669        O  0.95869051  0.52899266  0.99999511    -0.72700
O670        O  0.95774332  0.47042055  0.00117301    -0.73680
O671        O  0.95784876  0.50027291  0.54577879    -0.62300
O672        O  0.95780155  0.49939357  0.95518758    -0.70710
O673        O  0.03906531  0.49983005  0.95472104    -0.70260
O674        O  0.03933105  0.49891222  0.54572816    -0.61510
O675        O  0.03908767  0.47025181  0.99936551    -0.74020
O676        O  0.03995543  0.52868488  0.00087841    -0.72800
Cu677      Cu  0.95521501  0.49976447  0.00053211     1.04560
Cu678      Cu  0.04220937  0.49941842  0.00018145     1.04330
C679        C  0.99953121  0.53814575  0.00044590     0.93500
C680        C  0.99836688  0.46107079  0.00017719     0.92640
C681        C  0.99849756  0.49960675  0.55998366     0.84790
C682        C  0.99826099  0.49963559  0.94050844     0.91060
O683        O  0.95313139  0.52933677  0.74957597    -0.72700
O684        O  0.95255913  0.47088894  0.74923355    -0.73680
O685        O  0.95294751  0.50005905  0.79493677    -0.62300
O686        O  0.95331925  0.50035632  0.70389294    -0.70710
O687        O  0.03484266  0.49953263  0.70410656    -0.70260
O688        O  0.03421803  0.49999979  0.79467800    -0.61510
O689        O  0.03384997  0.47058162  0.74955793    -0.74020
O690        O  0.03442566  0.52915863  0.74921389    -0.72800
Cu691      Cu  0.95014135  0.50015637  0.74940832     1.04560
Cu692      Cu  0.03712704  0.49982574  0.74939173     1.04330
C693        C  0.99382382  0.53855131  0.74937192     0.93500
C694        C  0.99302319  0.46143210  0.74938175     0.92640
C695        C  0.99366737  0.50002837  0.80925460     0.84790
C696        C  0.99428688  0.49992793  0.68977132     0.91060
C697        C  0.95241318  0.50069467  0.89154443    -0.21060
C698        C  0.99748371  0.49973215  0.90691894    -0.09100
C699        C  0.04111909  0.49889867  0.88981154     0.29760
C700        C  0.03939383  0.49902660  0.85822878    -0.21060
C701        C  0.99433199  0.49997807  0.84284710    -0.09110
C702        C  0.95069107  0.50083090  0.85994881     0.29760
F703        F  0.90620787  0.50186521  0.84631078    -0.19640
H704        H  0.91818413  0.50139474  0.90398186     0.18130
H705        H  0.07363763  0.49832680  0.84580649     0.18140
F706        F  0.08561963  0.49786639  0.90343086    -0.19620
C707        C  0.98413680  0.51660847  0.60880193    -0.21060
C708        C  0.99801353  0.49968129  0.59314096    -0.09100
C709        C  0.01019587  0.48279328  0.60934439     0.29760
C710        C  0.00886762  0.48294057  0.64096021    -0.21060
C711        C  0.99499771  0.49986880  0.65661798    -0.09110
C712        C  0.98281702  0.51675695  0.64041568     0.29760
F713        F  0.97075061  0.53344599  0.65520306    -0.19640
H714        H  0.97473674  0.52973390  0.59650378     0.18130
H715        H  0.01821289  0.46980987  0.65326002     0.18140
F716        F  0.02216265  0.46609408  0.59455635    -0.19620
C717        C  0.03412130  0.40848718  0.74575636    -0.21060
C718        C  0.98960920  0.39844241  0.74990908    -0.09100
C719        C  0.94628546  0.40946144  0.75387321     0.29760
C720        C  0.94781309  0.42982927  0.75346248    -0.21060
C721        C  0.99235202  0.43979584  0.74943836    -0.09110
C722        C  0.03566648  0.42884729  0.74563133     0.29760
F723        F  0.07967185  0.43771373  0.74151079    -0.19640
H724        H  0.06814751  0.40066292  0.74234693     0.18130
H725        H  0.91389030  0.43781501  0.75668728     0.18140
F726        F  0.90235276  0.40080146  0.75889703    -0.19620
C727        C  0.03716654  0.40854344  0.98770404    -0.21060
C728        C  0.99763392  0.39828562  0.00046448    -0.09100
C729        C  0.95849718  0.40890831  0.51332070     0.29760
C730        C  0.95880218  0.42929207  0.51288428    -0.21060
C731        C  0.99831102  0.43950705  0.00008403    -0.09110
C732        C  0.03765751  0.42891128  0.98750625     0.29760
F733        F  0.07607207  0.43818772  0.97428069    -0.19640
H734        H  0.06754682  0.40080806  0.97738167     0.18130
H735        H  0.92842924  0.43711216  0.52309706     0.18140
F736        F  0.92063803  0.39971492  0.52722054    -0.19620
C737        C  0.95160409  0.59136274  0.74585276    -0.21060
C738        C  0.99588282  0.60155335  0.74996090    -0.09100
C739        C  0.03940346  0.59067399  0.75387109     0.29760
C740        C  0.03832271  0.57030382  0.75341656    -0.21060
C741        C  0.99404438  0.56018946  0.74942123    -0.09110
C742        C  0.95049495  0.57099546  0.74569411     0.29760
F743        F  0.90667675  0.56198706  0.74163594    -0.19640
H744        H  0.91743703  0.59907789  0.74251148     0.18130
H745        H  0.07238435  0.56243241  0.75659759     0.18140
F746        F  0.08311936  0.59947242  0.75889699    -0.19620
C747        C  0.04286440  0.59084962  0.50107750    -0.21060
C748        C  0.99821852  0.60120766  0.00003160    -0.09100
C749        C  0.95414302  0.59039845  0.99920788     0.29760
C750        C  0.95513582  0.57003926  0.99944386    -0.21060
C751        C  0.99972608  0.55979054  0.00040869    -0.09110
C752        C  0.04377678  0.57047171  0.50122180     0.29760
F753        F  0.08796890  0.56133658  0.50214816    -0.19640
H754        H  0.07759277  0.59839737  0.50181753     0.18130
H755        H  0.92058083  0.56228343  0.99875261     0.18140
F756        F  0.90966378  0.59918286  0.99794937    -0.19620
C757        C  0.24562224  0.77051576  0.75057588    -0.21060
C758        C  0.28952805  0.75967968  0.75032994    -0.09100
C759        C  0.28604319  0.73917842  0.74970883     0.29760
C760        C  0.24023944  0.73005174  0.74937132    -0.21060
C761        C  0.19633251  0.74088529  0.74961459    -0.09110
C762        C  0.19980688  0.76138462  0.75023174     0.29760
F763        F  0.15940145  0.77290467  0.75055539    -0.19640
H764        H  0.24613788  0.78625729  0.75108572     0.18130
H765        H  0.23975303  0.71431055  0.74886695     0.18140
F766        F  0.32642088  0.72764314  0.74935814    -0.19620
C767        C  0.69911707  0.73980768  0.74488965    -0.21060
C768        C  0.69765280  0.76003871  0.74979165    -0.09100
C769        C  0.74225222  0.76988283  0.75497357     0.29760
C770        C  0.78668710  0.75968421  0.75509183    -0.21060
C771        C  0.78817119  0.73945266  0.75015676    -0.09110
C772        C  0.74355931  0.72960788  0.74500315     0.29760
F773        F  0.74233411  0.71020578  0.73928584    -0.19640
H774        H  0.66583730  0.73174509  0.74044609     0.18130
H775        H  0.81994377  0.76775759  0.75954367     0.18140
F776        F  0.74346608  0.78928434  0.76071675    -0.19620
C777        C  0.29456599  0.73968225  0.50293876    -0.21060
C778        C  0.29569255  0.76007037  0.00001419    -0.09100
C779        C  0.25062709  0.77003134  0.99690667     0.29760
C780        C  0.20626781  0.75981579  0.99688905    -0.21060
C781        C  0.20511457  0.73942795  0.99988649    -0.09110
C782        C  0.25020628  0.72946341  0.50290294     0.29760
F783        F  0.25222420  0.70986926  0.50637568    -0.19640
H784        H  0.32809509  0.73144001  0.50565613     0.18130
H785        H  0.17276893  0.76807385  0.99417546     0.18140
F786        F  0.24866444  0.78961949  0.99329827    -0.19620
C787        C  0.70621150  0.74018372  0.50219144    -0.21060
C788        C  0.70494789  0.76060540  0.99977475    -0.09100
C789        C  0.75008754  0.77059820  0.99758973     0.29760
C790        C  0.79452801  0.76038483  0.99776231    -0.21060
C791        C  0.79577514  0.73996548  0.00012202    -0.09110
C792        C  0.75064818  0.72997312  0.50239119     0.29760
F793        F  0.74857615  0.71033943  0.50520760    -0.19640
H794        H  0.67272865  0.73186378  0.50416623     0.18130
H795        H  0.82803340  0.76869245  0.99578085     0.18140
F796        F  0.75217624  0.79023751  0.99491924    -0.19620
C797        C  0.73885077  0.22959439  0.74997637    -0.21060
C798        C  0.69496887  0.24044655  0.75028837    -0.09100
C799        C  0.69848758  0.26094729  0.75026825     0.29760
C800        C  0.74430841  0.27006100  0.74997269    -0.21060
C801        C  0.78819089  0.25921111  0.74965212    -0.09110
C802        C  0.78467894  0.23871059  0.74967375     0.29760
F803        F  0.82505523  0.22717381  0.74935762    -0.19640
H804        H  0.73831486  0.21385045  0.74994773     0.18130
H805        H  0.74482854  0.28580454  0.75000954     0.18140
F806        F  0.65812645  0.27249218  0.75056083    -0.19620
C807        C  0.28552466  0.26001012  0.74516227    -0.21060
C808        C  0.28683991  0.23975347  0.74976992    -0.09100
C809        C  0.24209203  0.22993155  0.75466793     0.29760
C810        C  0.19770411  0.24016776  0.75481079    -0.21060
C811        C  0.19637309  0.26042228  0.75017500    -0.09110
C812        C  0.24112983  0.27024844  0.74530524     0.29760
F813        F  0.24258501  0.28967714  0.73992970    -0.19640
H814        H  0.31889320  0.26807867  0.74094903     0.18130
H815        H  0.16435251  0.23209185  0.75903193     0.18140
F816        F  0.24064359  0.21050602  0.76007619    -0.19620
C817        C  0.74659058  0.23054707  0.99153320    -0.21060
C818        C  0.70376792  0.24066656  0.99998185    -0.09100
C819        C  0.70782068  0.26038103  0.50845703     0.29760
C820        C  0.75356168  0.26958708  0.50842030    -0.21060
C821        C  0.79641278  0.25946827  0.00000424    -0.09110
C822        C  0.79233589  0.23975894  0.99146477     0.29760
F823        F  0.83205741  0.22940834  0.98218071    -0.19640
H824        H  0.74477755  0.21545934  0.98444928     0.18130
H825        H  0.75532425  0.28466657  0.51554002     0.18140
F826        F  0.66807621  0.27072963  0.51771564    -0.19620
C827        C  0.20618190  0.24018055  0.99513973    -0.21060
C828        C  0.20470867  0.26040103  0.00016320    -0.09100
C829        C  0.24941461  0.27023645  0.50507766     0.29760
C830        C  0.29391360  0.26005355  0.50478737    -0.21060
C831        C  0.29541554  0.23983560  0.99968523    -0.09110
C832        C  0.25066899  0.22999535  0.99485082     0.29760
F833        F  0.24927474  0.21060181  0.98909982    -0.19640
H834        H  0.17285017  0.23210275  0.99092333     0.18130
H835        H  0.32722249  0.26814275  0.50900091     0.18140
F836        F  0.25070378  0.28962466  0.51090649    -0.19620
C837        C  0.45107497  0.07015712  0.75450262    -0.21060
C838        C  0.49547937  0.06010785  0.75005380    -0.09100
C839        C  0.53870054  0.07097743  0.74572480     0.29760
C840        C  0.53712617  0.09135462  0.74559644    -0.21060
C841        C  0.49266862  0.10146298  0.74998650    -0.09110
C842        C  0.44952615  0.09051786  0.75466808     0.29760
F843        F  0.40575249  0.09925707  0.76015246    -0.19640
H844        H  0.41724586  0.06224217  0.75820581     0.18130
H845        H  0.57100318  0.09914889  0.74171686     0.18140
F846        F  0.58256176  0.06201275  0.74123456    -0.19620
C847        C  0.53776381  0.92936174  0.75559011    -0.21060
C848        C  0.49433238  0.93972425  0.74980037    -0.09100
C849        C  0.45093386  0.92918602  0.74427921     0.29760
C850        C  0.45140940  0.90881005  0.74432668    -0.21060
C851        C  0.49488690  0.89839413  0.75005450    -0.09110
C852        C  0.53816298  0.90899052  0.75594939     0.29760
F853        F  0.58082300  0.89987693  0.76290946    -0.19640
H854        H  0.57158648  0.93704095  0.76028956     0.18130
H855        H  0.41754401  0.90124016  0.73948380     0.18140
F856        F  0.40800936  0.93847738  0.73837029    -0.19620
C857        C  0.45401643  0.00450851  0.85922825    -0.21060
C858        C  0.49685462  0.99982759  0.84303203    -0.09100
C859        C  0.53989184  0.99530735  0.85917533     0.29760
C860        C  0.53983391  0.99559298  0.89074656    -0.21060
C861        C  0.49700892  0.00029149  0.90694563    -0.09110
C862        C  0.45395781  0.00479319  0.89080261     0.29760
F863        F  0.41188563  0.00979535  0.90538950    -0.19640
H864        H  0.42047659  0.00816876  0.84744474     0.18130
H865        H  0.57337905  0.99193264  0.90252472     0.18140
F866        F  0.58195552  0.99029033  0.84458973    -0.19620
C867        C  0.53634737  0.00787682  0.64130349    -0.21060
C868        C  0.49610938  0.99991851  0.65688073    -0.09100
C869        C  0.45691744  0.99204358  0.64026639     0.29760
C870        C  0.45803154  0.99228949  0.60869801    -0.21060
C871        C  0.49824723  0.00026553  0.59311072    -0.09110
C872        C  0.53745754  0.00812940  0.60973237     0.29760
F873        F  0.57623573  0.01654597  0.59555722    -0.19640
H874        H  0.56676125  0.01418064  0.65360485     0.18130
H875        H  0.42761132  0.98598028  0.59640993     0.18140
F876        F  0.41815930  0.98361962  0.65445436    -0.19620
C877        C  0.45831936  0.09172587  0.50810585    -0.21060
C878        C  0.50136747  0.10179359  0.00007175    -0.09100
C879        C  0.54316184  0.09087857  0.99176484     0.29760
C880        C  0.54181281  0.07051005  0.99200005    -0.21060
C881        C  0.49880831  0.06049068  0.00009377    -0.09110
C882        C  0.45685827  0.07135618  0.50805271     0.29760
F883        F  0.41457182  0.06238176  0.51635768    -0.19640
H884        H  0.42563135  0.09957523  0.51487371     0.18130
H885        H  0.57450518  0.06256019  0.98541146     0.18140
F886        F  0.58509440  0.09970678  0.98256163    -0.19620
C887        C  0.54178078  0.90901654  0.50420567    -0.21060
C888        C  0.49767343  0.89873887  0.99995758    -0.09100
C889        C  0.45417313  0.90953150  0.99545253     0.29760
C890        C  0.45505685  0.92990069  0.99565763    -0.21060
C891        C  0.49912425  0.94010956  0.99996582    -0.09110
C892        C  0.54269540  0.92939046  0.50410638     0.29760
F893        F  0.58632762  0.93849461  0.50838621    -0.19640
H894        H  0.57593812  0.90136963  0.50792906     0.18130
H895        H  0.42098158  0.93769573  0.99210857     0.18140
F896        F  0.41065457  0.90064651  0.99014874    -0.19620
loop_ 
_geom_bond_atom_site_label_1 
_geom_bond_atom_site_label_2 
_geom_bond_distance 
_geom_bond_site_symmetry_2 
_ccdc_geom_bond_type 
O1           Cu9   2.011   1_565  S
O1           C11   1.279       .  A
O2           Cu9   2.014       .  S
O2          C460   1.279       .  A
O3           Cu9   2.001       .  S
O3           C13   1.277       .  A
O4         Cu457   2.000   1_565  S
O4           C14   1.277   1_565  A
O5          Cu10   2.011   1_554  S
O5           C14   1.279       .  A
O6         Cu458   2.010   1_565  S
O6           C13   1.279   1_565  A
O7          Cu10   2.005       .  S
O7           C12   1.278   1_556  A
O8          Cu10   2.008   1_564  S
O8          C459   1.278       .  A
Cu9         O452   2.000   1_545  S
Cu9        Cu458   2.369       .  S
Cu10        O454   2.010   1_545  S
Cu10       Cu457   2.369   1_556  S
C11         O456   1.278       .  A
C11         C443   1.485       .  S
C12         O450   1.279       .  A
C12         C881   1.484       .  S
C13         C413   1.481       .  S
C14         C423   1.477       .  S
O15         Cu23   2.004       .  S
O15          C25   1.277       .  A
O16         Cu23   2.006   1_545  S
O16          C26   1.278       .  A
O17         Cu23   2.011       .  S
O17          C27   1.278       .  A
O18         Cu23   2.011   1_545  S
O18          C28   1.279   1_545  A
O19         Cu24   2.000       .  S
O19          C28   1.277       .  A
O20         Cu24   2.001   1_545  S
O20          C27   1.277   1_545  A
O21         Cu24   2.013   1_545  S
O21          C26   1.279       .  A
O22         Cu24   2.014       .  S
O22          C25   1.279       .  A
Cu23        Cu24   2.369       .  S
C25         C400   1.484       .  S
C26         C390   1.485       .  S
C27         C420   1.477       .  S
C28         C410   1.481       .  S
N29          N30   1.320       .  A
N29          C33   1.345       .  A
N29         Cu37   2.081       .  S
N30          C31   1.343       .  A
N30         Cu36   2.068       .  S
C31          C32   1.389       .  A
C31          H34   1.079       .  S
C32         C383   1.492       .  S
C32          C33   1.392       .  A
C33          H35   1.081       .  S
Cu36         N39   2.068       .  S
Cu37         N47   2.081       .  S
Cu38         N40   2.072       .  S
Cu38         N46   2.072       .  S
N39          N40   1.319       .  A
N39          C43   1.344       .  A
N40          C41   1.345       .  A
C41          C42   1.390       .  A
C41          H44   1.080       .  S
C42         C430   1.488       .  S
C42          C43   1.388       .  A
C43          H45   1.081       .  S
N46          N47   1.322       .  A
N46          C50   1.343       .  A
N47          C48   1.346       .  A
C48          C49   1.390       .  A
C48          H51   1.081       .  S
C49         C370   1.487       .  S
C49          C50   1.386       .  A
C50          H52   1.081       .  S
N53          N54   1.320       .  A
N53          C57   1.344       .  A
N53         Cu61   2.076       .  S
N54          C55   1.342       .  A
N54         Cu60   2.070       .  S
C55          C56   1.390       .  A
C55          H58   1.080       .  S
C56         C350   1.495       .  S
C56          C57   1.393       .  A
C57          H59   1.079       .  S
Cu60         N63   2.070       .  S
Cu61         N71   2.076       .  S
Cu62         N64   2.069       .  S
Cu62         N70   2.069       .  S
N63          N64   1.319       .  A
N63          C67   1.344       .  A
N64          C65   1.344       .  A
C65          C66   1.390       .  A
C65          H68   1.079       .  S
C66         C393   1.491       .  S
C66          C67   1.390       .  A
C67          H69   1.080       .  S
N70          N71   1.320       .  A
N70          C74   1.343       .  A
N71          C72   1.345       .  A
C72          C73   1.391       .  A
C72          H75   1.082       .  S
C73         C360   1.490       .  S
C73          C74   1.389       .  A
C74          H76   1.079       .  S
N77          N78   1.320       .  A
N77          C81   1.345       .  A
N77         Cu85   2.083       .  S
N78          C79   1.342       .  A
N78         Cu84   2.069       .  S
C79          C80   1.390       .  A
C79          H82   1.078       .  S
C80         C340   1.495       .  S
C80          C81   1.393       .  A
C81          H83   1.081       .  S
Cu84         N87   2.069       .  S
Cu85         N95   2.083       .  S
Cu86         N88   2.067       .  S
Cu86         N94   2.067       .  S
N87          N88   1.318       .  A
N87          C91   1.344       .  A
N88          C89   1.343       .  A
C89          C90   1.391       .  A
C89          H92   1.079       .  S
C90         C440   1.492       .  S
C90          C91   1.391       .  A
C91          H93   1.080       .  S
N94          N95   1.320       .  A
N94          C98   1.342       .  A
N95          C96   1.346       .  A
C96          C97   1.393       .  A
C96          H99   1.081       .  S
C97         C330   1.494       .  S
C97          C98   1.389       .  A
C98         H100   1.079       .  S
N101        N102   1.320       .  A
N101        C105   1.345       .  A
N101       Cu109   2.076       .  S
N102        C103   1.342       .  A
N102       Cu108   2.065       .  S
C103        C104   1.388       .  A
C103        H106   1.079       .  S
C104        C320   1.489       .  S
C104        C105   1.391       .  A
C105        H107   1.082       .  S
Cu108       N111   2.065       .  S
Cu109       N119   2.077       .  S
Cu110       N112   2.073       .  S
Cu110       N118   2.073       .  S
N111        N112   1.319       .  A
N111        C115   1.343       .  A
N112        C113   1.345       .  A
C113        C114   1.390       .  A
C113        H116   1.081       .  S
C114        C403   1.489       .  S
C114        C115   1.389       .  A
C115        H117   1.079       .  S
N118        N119   1.320       .  A
N118        C122   1.342       .  A
N119        C120   1.344       .  A
C120        C121   1.393       .  A
C120        H123   1.079       .  S
C121        C310   1.495       .  S
C121        C122   1.391       .  A
C122        H124   1.080       .  S
N125        N126   1.320       .  A
N125        C129   1.346       .  A
N125       Cu133   2.083   1_655  S
N126        C127   1.341       .  A
N126       Cu132   2.064       .  S
C127        C128   1.389       .  A
C127        H130   1.078       .  S
C128        C343   1.495       .  S
C128        C129   1.394       .  A
C129        H131   1.081       .  S
Cu132       N135   2.064       .  S
Cu133       N143   2.084       .  S
Cu134       N136   2.070       .  S
Cu134       N142   2.070       .  S
N135        N136   1.317   1_655  A
N135        C139   1.342       .  A
N136        C137   1.344       .  A
C137        C138   1.393   1_455  A
C137        H140   1.080       .  S
C138        C300   1.495       .  S
C138        C139   1.392       .  A
C139        H141   1.077       .  S
N142        N143   1.321       .  A
N142        C146   1.342       .  A
N143        C144   1.345       .  A
C144        C145   1.393       .  A
C144        H147   1.081       .  S
C145        C333   1.494       .  S
C145        C146   1.389       .  A
C146        H148   1.079       .  S
N149        N150   1.321       .  A
N149        C153   1.344       .  A
N149       Cu157   2.077       .  S
N150        C151   1.343       .  A
N150       Cu156   2.070       .  S
C151        C152   1.388       .  A
C151        H154   1.079       .  S
C152        C323   1.490       .  S
C152        C153   1.390       .  A
C153        H155   1.082       .  S
Cu156       N159   2.070       .  S
Cu157       N167   2.076   1_655  S
Cu158       N160   2.069       .  S
Cu158       N166   2.069       .  S
N159        N160   1.319   1_655  A
N159        C163   1.344       .  A
N160        C161   1.344       .  A
C161        C162   1.391   1_455  A
C161        H164   1.079       .  S
C162        C290   1.492       .  S
C162        C163   1.391       .  A
C163        H165   1.080       .  S
N166        N167   1.320       .  A
N166        C170   1.342       .  A
N167        C168   1.345       .  A
C168        C169   1.393       .  A
C168        H171   1.079       .  S
C169        C313   1.495       .  S
C169        C170   1.390       .  A
C170        H172   1.080       .  S
N173        N174   1.321       .  A
N173        C177   1.345       .  A
N173       Cu181   2.081       .  S
N174        C175   1.343       .  A
N174       Cu180   2.070       .  S
C175        C176   1.388       .  A
C175        H178   1.079       .  S
C176        C380   1.492       .  S
C176        C177   1.391       .  A
C177        H179   1.082       .  S
Cu180       N183   2.070       .  S
Cu181       N191   2.081   1_455  S
Cu182       N184   2.070       .  S
Cu182       N190   2.070       .  S
N183        N184   1.320   1_455  A
N183        C187   1.344       .  A
N184        C185   1.344       .  A
C185        C186   1.387       .  A
C185        H188   1.080       .  S
C186        C280   1.484       .  S
C186        C187   1.387   1_655  A
C187        H189   1.081       .  S
N190        N191   1.321       .  A
N190        C194   1.343       .  A
N191        C192   1.346       .  A
C192        C193   1.390       .  A
C192        H195   1.081       .  S
C193        C373   1.488       .  S
C193        C194   1.386       .  A
C194        H196   1.081       .  S
N197        N198   1.320       .  A
N197        C201   1.344       .  A
N197       Cu205   2.076   1_455  S
N198        C199   1.343       .  A
N198       Cu204   2.070       .  S
C199        C200   1.389       .  A
C199        H202   1.079       .  S
C200        C363   1.491       .  S
C200        C201   1.391       .  A
C201        H203   1.082       .  S
Cu204       N207   2.070       .  S
Cu205       N215   2.076       .  S
Cu206       N208   2.069       .  S
Cu206       N214   2.069       .  S
N207        N208   1.319   1_455  A
N207        C211   1.343       .  A
N208        C209   1.344       .  A
C209        C210   1.391       .  A
C209        H212   1.079       .  S
C210        C270   1.492       .  S
C210        C211   1.390   1_655  A
C211        H213   1.080       .  S
N214        N215   1.320       .  A
N214        C218   1.342       .  A
N215        C216   1.345       .  A
C216        C217   1.393       .  A
C216        H219   1.079       .  S
C217        C353   1.495       .  S
C217        C218   1.390       .  A
C218        H220   1.080       .  S
O221       Cu229   2.008       .  S
O221        C231   1.279       .  A
O222       Cu229   2.015       .  S
O222        C232   1.279       .  A
O223       Cu677   2.004       .  S
O223        C233   1.276       .  A
O224       Cu229   2.008       .  S
O224        C234   1.278       .  A
O225       Cu230   2.014       .  S
O225        C234   1.279   1_455  A
O226       Cu678   2.017       .  S
O226        C233   1.278   1_455  A
O227       Cu230   2.004       .  S
O227        C232   1.277   1_455  A
O228       Cu230   2.009       .  S
O228        C231   1.278   1_455  A
Cu229       O671   2.004       .  S
Cu229      Cu230   2.370   1_655  S
Cu230       O674   2.017       .  S
C231        C303   1.485       .  S
C232        C283   1.480       .  S
C233        C260   1.467       .  S
C234        C250   1.487       .  S
O235       Cu243   2.004       .  S
O235        C245   1.277       .  A
O236       Cu243   2.009       .  S
O236        C246   1.278       .  A
O237       Cu243   2.016       .  S
O237        C247   1.279       .  A
O238       Cu243   2.016       .  S
O238        C248   1.278       .  A
O239       Cu244   2.005       .  S
O239        C248   1.276   1_455  A
O240       Cu244   2.005       .  S
O240        C247   1.278   1_455  A
O241       Cu244   2.009       .  S
O241        C246   1.278   1_455  A
O242       Cu244   2.014       .  S
O242        C245   1.279   1_455  A
Cu243      Cu244   2.370   1_655  S
C245        C293   1.485       .  S
C246        C273   1.485       .  S
C247        C253   1.487       .  S
C248        C263   1.467       .  S
C249        C250   1.407       .  A
C249        C254   1.399       .  A
C249        H256   1.083       .  S
C250        C251   1.409   1_655  A
C251        C252   1.399       .  A
C251        F258   1.357       .  S
C252        C253   1.407   1_455  A
C252        H257   1.083       .  S
C253        C254   1.409       .  A
C254        F255   1.357       .  S
C259        C260   1.403       .  A
C259        C264   1.399       .  A
C259        H266   1.084       .  S
C260        C261   1.404   1_655  A
C261        C262   1.399       .  A
C261        F268   1.358       .  S
C262        C263   1.402   1_455  A
C262        H267   1.084       .  S
C263        C264   1.404       .  A
C264        F265   1.358       .  S
C269        C270   1.408   1_455  A
C269        C274   1.398       .  A
C269        H276   1.081       .  S
C270        C271   1.411       .  A
C271        C272   1.398       .  A
C271        F278   1.355       .  S
C272        C273   1.405       .  A
C272        H277   1.083       .  S
C273        C274   1.408   1_655  A
C274        F275   1.357       .  S
C279        C280   1.405   1_455  A
C279        C284   1.398       .  A
C279        H286   1.082       .  S
C280        C729   1.409       .  A
C281        C282   1.399       .  A
C281        C728   1.409       .  A
C281        F288   1.356       .  S
C282        C731   1.404       .  A
C282        H287   1.083       .  S
C283        C284   1.407   1_655  A
C283        C730   1.404       .  A
C284        F285   1.358       .  S
C289        C290   1.407       .  A
C289        C294   1.398       .  A
C289        H296   1.081       .  S
C290        C291   1.411   1_655  A
C291        C292   1.398       .  A
C291        F298   1.355       .  S
C292        C293   1.404   1_455  A
C292        H297   1.083       .  S
C293        C294   1.408       .  A
C294        F295   1.357       .  S
C299        C304   1.399       .  A
C299        C748   1.409   1_455  A
C299        H306   1.080       .  S
C300        C301   1.413       .  A
C300        C747   1.409   1_655  A
C301        C302   1.397       .  A
C301        F308   1.354       .  S
C302        C303   1.404       .  A
C302        H307   1.083       .  S
C303        C752   1.408   1_655  A
C304        C751   1.408   1_455  A
C304        F305   1.357       .  S
C309        C310   1.408       .  A
C309        C314   1.398       .  A
C309        H316   1.081       .  S
C310        C311   1.410       .  A
C311        C312   1.397       .  A
C311        F318   1.354       .  S
C312        C313   1.408       .  A
C312        H317   1.080       .  S
C313        C314   1.410       .  A
C314        F315   1.354       .  S
C319        C320   1.405       .  A
C319        C324   1.398       .  A
C319        H326   1.081       .  S
C320        C321   1.410       .  A
C321        C322   1.397       .  A
C321        F328   1.355       .  S
C322        C323   1.406       .  A
C322        H327   1.081       .  S
C323        C324   1.410       .  A
C324        F325   1.355       .  S
C329        C334   1.398       .  A
C329        C778   1.405       .  A
C329        H336   1.081       .  S
C330        C331   1.412       .  A
C330        C777   1.405       .  A
C331        C332   1.398       .  A
C331        F338   1.355       .  S
C332        C333   1.406       .  A
C332        H337   1.081       .  S
C333        C782   1.412       .  A
C334        C781   1.412   1_554  A
C334        F335   1.355       .  S
C339        C344   1.398       .  A
C339        C788   1.406   1_554  A
C339        H346   1.080       .  S
C340        C341   1.412       .  A
C340        C787   1.406       .  A
C341        C342   1.398       .  A
C341        F348   1.354       .  S
C342        C343   1.406       .  A
C342        H347   1.080       .  S
C343        C792   1.412       .  A
C344        C791   1.412       .  A
C344        F345   1.354       .  S
C349        C350   1.408       .  A
C349        C354   1.397       .  A
C349        H356   1.080       .  S
C350        C351   1.410       .  A
C351        C352   1.397       .  A
C351        F358   1.354       .  S
C352        C353   1.408       .  A
C352        H357   1.080       .  S
C353        C354   1.410       .  A
C354        F355   1.354       .  S
C359        C360   1.406       .  A
C359        C364   1.398       .  A
C359        H366   1.081       .  S
C360        C361   1.410       .  A
C361        C362   1.398       .  A
C361        F368   1.355       .  S
C362        C363   1.406       .  A
C362        H367   1.081       .  S
C363        C364   1.411       .  A
C364        F365   1.355       .  S
C369        C370   1.406       .  A
C369        C374   1.398       .  A
C369        H376   1.083       .  S
C370        C819   1.408       .  A
C371        C372   1.398       .  A
C371        C818   1.408   1_554  A
C371        F378   1.356       .  S
C372        C821   1.407       .  A
C372        H377   1.082       .  S
C373        C374   1.408       .  A
C373        C820   1.407       .  A
C374        F375   1.356       .  S
C379        C380   1.405       .  A
C379        C384   1.398       .  A
C379        H386   1.081       .  S
C380        C829   1.411       .  A
C381        C382   1.398       .  A
C381        C828   1.411       .  A
C381        F388   1.355       .  S
C382        C831   1.406   1_554  A
C382        H387   1.081       .  S
C383        C384   1.411       .  A
C383        C830   1.406       .  A
C384        F385   1.355       .  S
C389        C390   1.405       .  A
C389        C394   1.398       .  A
C389        H396   1.083       .  S
C390        C391   1.408       .  A
C391        C392   1.399       .  A
C391        F398   1.357       .  S
C392        C393   1.408       .  A
C392        H397   1.081       .  S
C393        C394   1.411       .  A
C394        F395   1.355       .  S
C399        C400   1.404       .  A
C399        C404   1.398       .  A
C399        H406   1.083       .  S
C400        C401   1.409       .  A
C401        C402   1.398       .  A
C401        F408   1.357       .  S
C402        C403   1.406       .  A
C402        H407   1.081       .  S
C403        C404   1.411       .  A
C404        F405   1.355       .  S
C409        C410   1.404   1_545  A
C409        C414   1.397       .  A
C409        H416   1.083       .  S
C410        C411   1.409       .  A
C411        C412   1.397       .  A
C411        F418   1.357       .  S
C412        C413   1.405   1_565  A
C412        H417   1.083       .  S
C413        C414   1.409       .  A
C414        F415   1.357       .  S
C419        C420   1.405   1_545  A
C419        C424   1.397       .  A
C419        H426   1.083       .  S
C420        C421   1.406       .  A
C421        C422   1.397       .  A
C421        F428   1.357       .  S
C422        C423   1.405   1_565  A
C422        H427   1.083       .  S
C423        C424   1.407       .  A
C424        F425   1.357       .  S
C429        C434   1.398       .  A
C429        C878   1.407       .  A
C429        H436   1.081       .  S
C430        C431   1.410       .  A
C430        C877   1.407       .  A
C431        C432   1.398       .  A
C431        F438   1.356       .  S
C432        C433   1.405       .  A
C432        H437   1.083       .  S
C433        C460   1.484       .  S
C433        C882   1.407       .  A
C434        C881   1.407       .  A
C434        F435   1.357       .  S
C439        C444   1.398       .  A
C439        C888   1.408   1_554  A
C439        H446   1.081       .  S
C440        C441   1.411       .  A
C440        C887   1.408       .  A
C441        C442   1.398       .  A
C441        F448   1.355       .  S
C442        C443   1.404       .  A
C442        H447   1.083       .  S
C443        C892   1.408       .  A
C444        C891   1.408   1_554  A
C444        F445   1.357       .  S
O449       Cu457   2.011   1_566  S
O449        C459   1.279   1_556  A
O450       Cu457   2.014       .  S
O451       Cu457   2.001   1_556  S
O451        C461   1.277       .  A
O452        C462   1.277   1_565  A
O453       Cu458   2.011       .  S
O453        C462   1.279       .  A
O454        C461   1.279   1_565  A
O455       Cu458   2.005       .  S
O455        C460   1.278       .  A
O456       Cu458   2.008   1_565  S
C459        C891   1.485   1_554  S
C461        C861   1.481       .  S
C462        C871   1.477       .  S
O463       Cu471   2.004       .  S
O463        C473   1.277       .  A
O464       Cu471   2.006   1_545  S
O464        C474   1.278       .  A
O465       Cu471   2.011       .  S
O465        C475   1.278       .  A
O466       Cu471   2.011   1_545  S
O466        C476   1.279   1_545  A
O467       Cu472   2.000       .  S
O467        C476   1.277       .  A
O468       Cu472   2.001   1_545  S
O468        C475   1.277   1_545  A
O469       Cu472   2.013   1_545  S
O469        C474   1.279       .  A
O470       Cu472   2.014       .  S
O470        C473   1.279       .  A
Cu471      Cu472   2.369       .  S
C473        C848   1.484       .  S
C474        C838   1.485       .  S
C475        C868   1.477       .  S
C476        C858   1.481       .  S
N477        N478   1.320       .  A
N477        C481   1.345       .  A
N477       Cu485   2.081       .  S
N478        C479   1.343   1_556  A
N478       Cu484   2.068   1_556  S
C479        C480   1.389   1_554  A
C479        H482   1.079       .  S
C480        C831   1.492       .  S
C480        C481   1.392       .  A
C481        H483   1.081       .  S
Cu484       N487   2.068       .  S
Cu485       N495   2.081       .  S
Cu486       N488   2.072       .  S
Cu486       N494   2.072       .  S
N487        N488   1.319       .  A
N487        C491   1.344   1_554  A
N488        C489   1.345       .  A
C489        C490   1.390       .  A
C489        H492   1.080       .  S
C490        C878   1.488       .  S
C490        C491   1.388   1_554  A
C491        H493   1.081       .  S
N494        N495   1.322   1_554  A
N494        C498   1.343       .  A
N495        C496   1.346       .  A
C496        C497   1.390   1_556  A
C496        H499   1.081       .  S
C497        C818   1.487   1_554  S
C497        C498   1.386       .  A
C498        H500   1.081       .  S
N501        N502   1.320       .  A
N501        C505   1.344       .  A
N501       Cu509   2.076       .  S
N502        C503   1.342       .  A
N502       Cu508   2.070       .  S
C503        C504   1.390       .  A
C503        H506   1.080       .  S
C504        C798   1.495       .  S
C504        C505   1.393       .  A
C505        H507   1.079       .  S
Cu508       N511   2.070       .  S
Cu509       N519   2.076       .  S
Cu510       N512   2.069       .  S
Cu510       N518   2.069       .  S
N511        N512   1.319       .  A
N511        C515   1.344       .  A
N512        C513   1.344       .  A
C513        C514   1.390       .  A
C513        H516   1.079       .  S
C514        C841   1.491       .  S
C514        C515   1.390       .  A
C515        H517   1.080       .  S
N518        N519   1.320       .  A
N518        C522   1.343       .  A
N519        C520   1.345       .  A
C520        C521   1.391       .  A
C520        H523   1.082       .  S
C521        C808   1.490       .  S
C521        C522   1.389       .  A
C522        H524   1.079       .  S
N525        N526   1.320       .  A
N525        C529   1.345       .  A
N525       Cu533   2.083       .  S
N526        C527   1.342       .  A
N526       Cu532   2.069       .  S
C527        C528   1.390       .  A
C527        H530   1.078   1_556  S
C528        C788   1.495       .  S
C528        C529   1.393       .  A
C529        H531   1.081       .  S
Cu532       N535   2.069       .  S
Cu533       N543   2.083       .  S
Cu534       N536   2.067       .  S
Cu534       N542   2.067       .  S
N535        N536   1.318   1_556  A
N535        C539   1.344       .  A
N536        C537   1.343       .  A
C537        C538   1.391       .  A
C537        H540   1.079       .  S
C538        C888   1.492   1_554  S
C538        C539   1.391   1_554  A
C539        H541   1.080       .  S
N542        N543   1.320   1_554  A
N542        C546   1.342       .  A
N543        C544   1.346       .  A
C544        C545   1.393   1_556  A
C544        H547   1.081       .  S
C545        C778   1.494       .  S
C545        C546   1.389       .  A
C546        H548   1.079       .  S
N549        N550   1.320       .  A
N549        C553   1.345       .  A
N549       Cu557   2.076       .  S
N550        C551   1.342       .  A
N550       Cu556   2.065       .  S
C551        C552   1.388       .  A
C551        H554   1.079       .  S
C552        C768   1.489       .  S
C552        C553   1.391       .  A
C553        H555   1.082       .  S
Cu556       N559   2.065       .  S
Cu557       N567   2.077       .  S
Cu558       N560   2.073       .  S
Cu558       N566   2.073       .  S
N559        N560   1.319       .  A
N559        C563   1.343       .  A
N560        C561   1.345       .  A
C561        C562   1.390       .  A
C561        H564   1.081       .  S
C562        C851   1.489       .  S
C562        C563   1.389       .  A
C563        H565   1.079       .  S
N566        N567   1.320       .  A
N566        C570   1.342       .  A
N567        C568   1.344       .  A
C568        C569   1.393       .  A
C568        H571   1.079       .  S
C569        C758   1.495       .  S
C569        C570   1.391       .  A
C570        H572   1.080       .  S
N573        N574   1.320   1_554  A
N573        C577   1.346       .  A
N573       Cu581   2.083   1_655  S
N574        C575   1.341       .  A
N574       Cu580   2.064       .  S
C575        C576   1.389   1_556  A
C575        H578   1.078       .  S
C576        C791   1.495       .  S
C576        C577   1.394       .  A
C577        H579   1.081       .  S
Cu580       N583   2.064       .  S
Cu581       N591   2.084       .  S
Cu582       N584   2.070       .  S
Cu582       N590   2.070       .  S
N583        N584   1.317   1_655  A
N583        C587   1.342   1_556  A
N584        C585   1.344       .  A
C585        C586   1.393   1_455  A
C585        H588   1.080       .  S
C586        C748   1.495   1_556  S
C586        C587   1.392   1_556  A
C587        H589   1.077       .  S
N590        N591   1.321   1_556  A
N590        C594   1.342       .  A
N591        C592   1.345       .  A
C592        C593   1.393   1_554  A
C592        H595   1.081       .  S
C593        C781   1.494       .  S
C593        C594   1.389       .  A
C594        H596   1.079       .  S
N597        N598   1.321       .  A
N597        C601   1.344       .  A
N597       Cu605   2.077       .  S
N598        C599   1.343       .  A
N598       Cu604   2.070       .  S
C599        C600   1.388       .  A
C599        H602   1.079       .  S
C600        C771   1.490       .  S
C600        C601   1.390       .  A
C601        H603   1.082       .  S
Cu604       N607   2.070       .  S
Cu605       N615   2.076   1_655  S
Cu606       N608   2.069       .  S
Cu606       N614   2.069       .  S
N607        N608   1.319   1_655  A
N607        C611   1.344       .  A
N608        C609   1.344       .  A
C609        C610   1.391   1_455  A
C609        H612   1.079       .  S
C610        C738   1.492       .  S
C610        C611   1.391       .  A
C611        H613   1.080       .  S
N614        N615   1.320       .  A
N614        C618   1.342       .  A
N615        C616   1.345       .  A
C616        C617   1.393       .  A
C616        H619   1.079       .  S
C617        C761   1.495       .  S
C617        C618   1.390       .  A
C618        H620   1.080       .  S
N621        N622   1.321   1_554  A
N621        C625   1.345       .  A
N621       Cu629   2.081       .  S
N622        C623   1.343       .  A
N622       Cu628   2.070       .  S
C623        C624   1.388   1_556  A
C623        H626   1.079       .  S
C624        C828   1.492       .  S
C624        C625   1.391       .  A
C625        H627   1.082       .  S
Cu628       N631   2.070       .  S
Cu629       N639   2.081   1_455  S
Cu630       N632   2.070       .  S
Cu630       N638   2.070       .  S
N631        N632   1.320   1_455  A
N631        C635   1.344       .  A
N632        C633   1.344   1_556  A
C633        C634   1.387       .  A
C633        H636   1.080       .  S
C634        C728   1.484       .  S
C634        C635   1.387   1_654  A
C635        H637   1.081       .  S
N638        N639   1.321   1_556  A
N638        C642   1.343       .  A
N639        C640   1.346       .  A
C640        C641   1.390       .  A
C640        H643   1.081       .  S
C641        C821   1.488       .  S
C641        C642   1.386   1_554  A
C642        H644   1.081       .  S
N645        N646   1.320       .  A
N645        C649   1.344       .  A
N645       Cu653   2.076   1_455  S
N646        C647   1.343       .  A
N646       Cu652   2.070       .  S
C647        C648   1.389       .  A
C647        H650   1.079       .  S
C648        C811   1.491       .  S
C648        C649   1.391       .  A
C649        H651   1.082       .  S
Cu652       N655   2.070       .  S
Cu653       N663   2.076       .  S
Cu654       N656   2.069       .  S
Cu654       N662   2.069       .  S
N655        N656   1.319   1_455  A
N655        C659   1.343       .  A
N656        C657   1.344       .  A
C657        C658   1.391       .  A
C657        H660   1.079       .  S
C658        C718   1.492       .  S
C658        C659   1.390   1_655  A
C659        H661   1.080       .  S
N662        N663   1.320       .  A
N662        C666   1.342       .  A
N663        C664   1.345       .  A
C664        C665   1.393       .  A
C664        H667   1.079       .  S
C665        C801   1.495       .  S
C665        C666   1.390       .  A
C666        H668   1.080       .  S
O669       Cu677   2.008   1_556  S
O669        C679   1.279   1_556  A
O670       Cu677   2.015       .  S
O670        C680   1.279       .  A
O671        C681   1.276       .  A
O672       Cu677   2.008   1_556  S
O672        C682   1.278       .  A
O673       Cu678   2.014   1_556  S
O673        C682   1.279   1_455  A
O674        C681   1.278   1_455  A
O675       Cu678   2.004   1_556  S
O675        C680   1.277   1_456  A
O676       Cu678   2.009       .  S
O676        C679   1.278   1_455  A
Cu677      Cu678   2.370   1_655  S
C679        C751   1.485       .  S
C680        C731   1.480       .  S
C681        C708   1.467       .  S
C682        C698   1.487       .  S
O683       Cu691   2.004       .  S
O683        C693   1.277       .  A
O684       Cu691   2.009       .  S
O684        C694   1.278       .  A
O685       Cu691   2.016       .  S
O685        C695   1.279       .  A
O686       Cu691   2.016       .  S
O686        C696   1.278       .  A
O687       Cu692   2.005       .  S
O687        C696   1.276   1_455  A
O688       Cu692   2.005       .  S
O688        C695   1.278   1_455  A
O689       Cu692   2.009       .  S
O689        C694   1.278   1_455  A
O690       Cu692   2.014       .  S
O690        C693   1.279   1_455  A
Cu691      Cu692   2.370   1_655  S
C693        C741   1.485       .  S
C694        C721   1.485       .  S
C695        C701   1.487       .  S
C696        C711   1.467       .  S
C697        C698   1.407       .  A
C697        C702   1.399       .  A
C697        H704   1.083       .  S
C698        C699   1.409   1_655  A
C699        C700   1.399       .  A
C699        F706   1.357       .  S
C700        C701   1.407   1_455  A
C700        H705   1.083       .  S
C701        C702   1.409       .  A
C702        F703   1.357       .  S
C707        C708   1.403       .  A
C707        C712   1.399       .  A
C707        H714   1.084       .  S
C708        C709   1.404   1_655  A
C709        C710   1.399       .  A
C709        F716   1.358       .  S
C710        C711   1.402   1_455  A
C710        H715   1.084       .  S
C711        C712   1.404       .  A
C712        F713   1.358       .  S
C717        C718   1.408   1_455  A
C717        C722   1.398       .  A
C717        H724   1.081       .  S
C718        C719   1.411       .  A
C719        C720   1.398       .  A
C719        F726   1.355       .  S
C720        C721   1.405       .  A
C720        H725   1.083       .  S
C721        C722   1.408   1_655  A
C722        F723   1.357       .  S
C727        C728   1.405   1_456  A
C727        C732   1.398       .  A
C727        H734   1.082       .  S
C729        C730   1.399       .  A
C729        F736   1.356       .  S
C730        H735   1.083       .  S
C731        C732   1.407   1_654  A
C732        F733   1.358       .  S
C737        C738   1.407       .  A
C737        C742   1.398       .  A
C737        H744   1.081       .  S
C738        C739   1.411   1_655  A
C739        C740   1.398       .  A
C739        F746   1.355       .  S
C740        C741   1.404   1_455  A
C740        H745   1.083       .  S
C741        C742   1.408       .  A
C742        F743   1.357       .  S
C747        C752   1.399       .  A
C747        H754   1.080       .  S
C748        C749   1.413   1_554  A
C749        C750   1.397       .  A
C749        F756   1.354       .  S
C750        C751   1.404   1_556  A
C750        H755   1.083       .  S
C752        F753   1.357       .  S
C757        C758   1.408       .  A
C757        C762   1.398       .  A
C757        H764   1.081       .  S
C758        C759   1.410       .  A
C759        C760   1.397       .  A
C759        F766   1.354       .  S
C760        C761   1.408       .  A
C760        H765   1.080       .  S
C761        C762   1.410       .  A
C762        F763   1.354       .  S
C767        C768   1.405       .  A
C767        C772   1.398       .  A
C767        H774   1.081       .  S
C768        C769   1.410       .  A
C769        C770   1.397       .  A
C769        F776   1.355       .  S
C770        C771   1.406       .  A
C770        H775   1.081       .  S
C771        C772   1.410       .  A
C772        F773   1.355       .  S
C777        C782   1.398       .  A
C777        H784   1.081       .  S
C778        C779   1.412   1_554  A
C779        C780   1.398       .  A
C779        F786   1.355       .  S
C780        C781   1.406       .  A
C780        H785   1.081       .  S
C782        F783   1.355       .  S
C787        C792   1.398       .  A
C787        H794   1.080       .  S
C788        C789   1.412       .  A
C789        C790   1.398       .  A
C789        F796   1.354       .  S
C790        C791   1.406   1_556  A
C790        H795   1.080       .  S
C792        F793   1.354       .  S
C797        C798   1.408       .  A
C797        C802   1.397       .  A
C797        H804   1.080       .  S
C798        C799   1.410       .  A
C799        C800   1.397       .  A
C799        F806   1.354       .  S
C800        C801   1.408       .  A
C800        H805   1.080       .  S
C801        C802   1.410       .  A
C802        F803   1.354       .  S
C807        C808   1.406       .  A
C807        C812   1.398       .  A
C807        H814   1.081       .  S
C808        C809   1.410       .  A
C809        C810   1.398       .  A
C809        F816   1.355       .  S
C810        C811   1.406       .  A
C810        H815   1.081       .  S
C811        C812   1.411       .  A
C812        F813   1.355       .  S
C817        C818   1.406       .  A
C817        C822   1.398       .  A
C817        H824   1.083       .  S
C819        C820   1.398       .  A
C819        F826   1.356       .  S
C820        H825   1.082       .  S
C821        C822   1.408   1_554  A
C822        F823   1.356       .  S
C827        C828   1.405   1_556  A
C827        C832   1.398       .  A
C827        H834   1.081       .  S
C829        C830   1.398       .  A
C829        F836   1.355       .  S
C830        H835   1.081       .  S
C831        C832   1.411       .  A
C832        F833   1.355       .  S
C837        C838   1.405       .  A
C837        C842   1.398       .  A
C837        H844   1.083       .  S
C838        C839   1.408       .  A
C839        C840   1.399       .  A
C839        F846   1.357       .  S
C840        C841   1.408       .  A
C840        H845   1.081       .  S
C841        C842   1.411       .  A
C842        F843   1.355       .  S
C847        C848   1.404       .  A
C847        C852   1.398       .  A
C847        H854   1.083       .  S
C848        C849   1.409       .  A
C849        C850   1.398       .  A
C849        F856   1.357       .  S
C850        C851   1.406       .  A
C850        H855   1.081       .  S
C851        C852   1.411       .  A
C852        F853   1.355       .  S
C857        C858   1.404   1_545  A
C857        C862   1.397       .  A
C857        H864   1.083       .  S
C858        C859   1.409       .  A
C859        C860   1.397       .  A
C859        F866   1.357       .  S
C860        C861   1.405   1_565  A
C860        H865   1.083       .  S
C861        C862   1.409       .  A
C862        F863   1.357       .  S
C867        C868   1.405   1_545  A
C867        C872   1.397       .  A
C867        H874   1.083       .  S
C868        C869   1.406       .  A
C869        C870   1.397       .  A
C869        F876   1.357       .  S
C870        C871   1.405   1_565  A
C870        H875   1.083       .  S
C871        C872   1.407       .  A
C872        F873   1.357       .  S
C877        C882   1.398       .  A
C877        H884   1.081       .  S
C878        C879   1.410   1_554  A
C879        C880   1.398       .  A
C879        F886   1.356       .  S
C880        C881   1.405   1_556  A
C880        H885   1.083       .  S
C882        F883   1.357       .  S
C887        C892   1.398       .  A
C887        H894   1.081       .  S
C888        C889   1.411       .  A
C889        C890   1.398       .  A
C889        F896   1.355       .  S
C890        C891   1.404       .  A
C890        H895   1.083       .  S
C892        F893   1.357       .  S
