geometry optimzed in LAMMPS
_audit_creation_date              2020-11-30 
_audit_creation_method            'lammps2cif' 
_symmetry_space_group_name_H-M    'P1' 
_symmetry_Int_Tables_number       1 
_symmetry_cell_setting            triclinic 
loop_ 
_symmetry_equiv_pos_as_xyz 
  x,y,z 
_cell_length_a                    35.58828431539618 
_cell_length_b                    35.76925563798749 
_cell_length_c                    31.774216224060353 
_cell_angle_alpha                 89.40326067907017 
_cell_angle_beta                  89.9233286139271 
_cell_angle_gamma                 94.23395835256488 
loop_ 
_atom_site_label 
_atom_site_type_symbol 
_atom_site_fract_x 
_atom_site_fract_y 
_atom_site_fract_z 
_atom_site_charge 
O1          O  0.08647846  0.47308811  0.02074667    -0.80610
O2          O  0.41498371  0.04727146  0.01567648    -0.80630
O3          O  0.03401166  0.08683602  0.03789781    -0.80640
O4          O  0.46595294  0.43077927  0.03606073    -0.80580
O5          O  0.47957722  0.06051763  0.05940549    -0.80700
O6          O  0.02326100  0.44386284  0.05467015    -0.80620
O7          O  0.43497214  0.49613116  0.04468890    -0.80610
O8          O  0.08219127  0.02937496  0.04889005    -0.80650
C9          C  0.09699775  0.99803928  0.04755725     1.09080
C10         C  0.41109102  0.02171466  0.04367767     1.08970
C11         C  0.00551115  0.08654737  0.06168757     1.09100
C12         C  0.99267536  0.42465022  0.06031616     1.08980
O13         O  0.04093765  0.41511734  0.47918491    -0.80610
O14         O  0.47658730  0.08139230  0.47356203    -0.80690
O15         O  0.08991805  0.02568803  0.46167600    -0.80620
O16         O  0.41964327  0.45562925  0.47519344    -0.80600
O17         O  0.44301054  0.01026506  0.45043848    -0.80650
O18         O  0.05079547  0.48130823  0.43888642    -0.80620
O19         O  0.49064864  0.44038852  0.45156322    -0.80580
O20         O  0.03357248  0.07268108  0.44997044    -0.80650
Co21       Co  0.03456253  0.46389581  0.99709640     1.51530
Co22       Co  0.46509025  0.03398474  0.50586021     1.51690
Co23       Co  0.05651465  0.05084398  0.00019258     1.51570
Co24       Co  0.46665340  0.47428131  0.49685240     1.51470
O25         O  0.01419222  0.50965586  0.00906097    -1.42540
C26         C  0.01424563  0.41397712  0.45232067     1.09010
C27         C  0.50403477  0.09015688  0.44916601     1.09100
C28         C  0.08095610  0.50150384  0.43456831     1.09040
C29         C  0.41750152  0.98238159  0.44896742     1.09010
C30         C  0.98366273  0.28860517  0.16094331     0.02660
C31         C  0.98614724  0.25544333  0.13838235    -0.13490
C32         C  0.99227376  0.22171632  0.15934073     0.00160
C33         C  0.99536424  0.22141490  0.20341362    -0.12020
C34         C  0.99136531  0.25414255  0.22716092     0.02650
C35         C  0.98502236  0.28753478  0.20497675    -0.11440
H36         H  0.98440099  0.25614706  0.10433771     0.08250
H37         H  0.00211898  0.19555431  0.21843343     0.05770
H38         H  0.98105124  0.31329191  0.22123687     0.05620
C39         C  0.00589034  0.28735119  0.34082486     0.02660
C40         C  0.00241234  0.25344547  0.36289321    -0.13490
C41         C  0.99601516  0.21968301  0.34169275     0.00160
C42         C  0.99120649  0.21984302  0.29789807    -0.12020
C43         C  0.99490384  0.25382730  0.27445047     0.02650
C44         C  0.00276788  0.28754802  0.29687900    -0.11440
H45         H  0.00502762  0.25326274  0.39691846     0.08250
H46         H  0.98499902  0.19320763  0.28283452     0.05770
H47         H  0.00736648  0.31427376  0.28093219     0.05620
C48         C  0.22211869  0.98729254  0.16002964     0.02660
C49         C  0.25576801  0.99953970  0.14002952    -0.13490
C50         C  0.28913382  0.00584547  0.16276018     0.00160
C51         C  0.28830468  0.00213611  0.20684413    -0.12020
C52         C  0.25478219  0.98891013  0.22786340     0.02650
C53         C  0.22234181  0.97971857  0.20334345    -0.11440
H54         H  0.25605239  0.00417158  0.10623839     0.08250
H55         H  0.31372434  0.00990648  0.22422277     0.05770
H56         H  0.19675669  0.96730796  0.21761459     0.05620
C57         C  0.21524930  0.98666567  0.33954083     0.02660
C58         C  0.21807690  0.98910970  0.29575322    -0.13490
C59         C  0.25276630  0.98626875  0.27500057     0.00160
C60         C  0.28512935  0.98189841  0.29976076    -0.12020
C61         C  0.28322478  0.98156091  0.34409106     0.02650
C62         C  0.24798406  0.98422585  0.36364307    -0.11440
H63         H  0.19277341  0.99373227  0.27828922     0.08250
H64         H  0.31198979  0.97852535  0.28487306     0.05770
H65         H  0.24595288  0.98512843  0.39763159     0.05620
C66         C  0.46856201  0.12813217  0.39887033    -0.09630
C67         C  0.00228861  0.12223435  0.42004639     0.06570
C68         C  0.03376201  0.14814475  0.41437779    -0.03390
C69         C  0.03133021  0.17869303  0.38725767    -0.07840
C70         C  0.99778904  0.18450196  0.36589657     0.05680
C71         C  0.46620166  0.15890419  0.37162792    -0.02870
Br72       Br  0.41881698  0.16618496  0.34525629    -0.02560
H73         H  0.44391366  0.10908093  0.40392953     0.09600
H74         H  0.05543777  0.19881646  0.38383612     0.07610
Br75       Br  0.07938454  0.14602760  0.44640643    -0.02990
C76         C  0.04244012  0.35986704  0.41919776    -0.09630
C77         C  0.01296897  0.38414218  0.41986803     0.06570
C78         C  0.48323860  0.37815274  0.39045629    -0.03390
C79         C  0.48269341  0.34759205  0.36327213    -0.07840
C80         C  0.01107832  0.32254526  0.36460513     0.05680
C81         C  0.04166254  0.32938806  0.39208903    -0.02900
Br82       Br  0.08310246  0.29789900  0.39381443    -0.02560
H83         H  0.06612934  0.36403555  0.44040679     0.09600
H84         H  0.45905192  0.34238632  0.34214802     0.07610
Br85       Br  0.44137241  0.40870432  0.38591119    -0.02990
C86         C  0.47394619  0.15395983  0.14585489    -0.09630
C87         C  0.99636962  0.18677152  0.13527664     0.06570
C88         C  0.02267987  0.18544125  0.10228863    -0.03390
C89         C  0.02524040  0.15238822  0.07989674    -0.07840
C90         C  0.00231118  0.11956288  0.08952457     0.05680
C91         C  0.47666861  0.12056235  0.12349101    -0.02870
Br92       Br  0.44562932  0.07751531  0.14229701    -0.02560
H93         H  0.45396451  0.15439059  0.17157567     0.09600
H94         H  0.04536319  0.15273468  0.05425897     0.07610
Br95       Br  0.05754096  0.22708675  0.08743876    -0.02990
C96         C  0.45751357  0.36650407  0.08685033    -0.09630
C97         C  0.98867588  0.39291125  0.09111229     0.06570
C98         C  0.01645122  0.38576535  0.12140946    -0.03390
C99         C  0.01345247  0.35220049  0.14473449    -0.07840
C100        C  0.98340001  0.32513569  0.13850055     0.05680
C101        C  0.45483829  0.33291286  0.10992265    -0.02870
Br102      Br  0.41146501  0.29874416  0.10140868    -0.02560
H103        H  0.43557135  0.37121385  0.06422910     0.09600
H104        H  0.03541363  0.34664487  0.16704819     0.07610
Br105      Br  0.05936722  0.41990270  0.13269347    -0.02990
C106        C  0.35335908  0.95704596  0.42906392    -0.09630
C107        C  0.38510352  0.98133981  0.41914869     0.06570
C108        C  0.38367030  0.50430533  0.38283038    -0.03390
C109        C  0.35046290  0.50378350  0.35885457    -0.07840
C110        C  0.31835524  0.98018121  0.36968661     0.05680
C111        C  0.32062159  0.95596922  0.40481451    -0.02870
Br112      Br  0.28128490  0.91888740  0.42053470    -0.02560
H113        H  0.35369487  0.93864294  0.45633550     0.09600
H114        H  0.34968027  0.52222486  0.33165676     0.07610
Br115      Br  0.42625400  0.53541705  0.36278247    -0.02990
C116        C  0.12636289  0.46078829  0.40324402    -0.09630
C117        C  0.10880931  0.49460762  0.40183122     0.06570
C118        C  0.12446835  0.02430136  0.37646815    -0.03390
C119        C  0.15868459  0.02096153  0.35560582    -0.07840
C120        C  0.17789284  0.98826386  0.35983754     0.05680
C121        C  0.16069891  0.45744603  0.38247758    -0.02870
Br122      Br  0.18288740  0.41030698  0.38592442    -0.02560
H123        H  0.11461087  0.43774472  0.42268367     0.09600
H124        H  0.17090938  0.04436826  0.33705994     0.07610
Br125      Br  0.10016363  0.07006271  0.36996113    -0.02990
C126        C  0.32473929  0.04343289  0.10777875    -0.09630
C127        C  0.32434558  0.01510667  0.13879391     0.06570
C128        C  0.35431705  0.49158860  0.14039355    -0.03390
C129        C  0.38265311  0.49533434  0.10991958    -0.07840
C130        C  0.38178646  0.02192398  0.07696825     0.05680
C131        C  0.35274186  0.04688668  0.07678534    -0.02870
Br132      Br  0.34734392  0.08463335  0.53409709    -0.02560
H133        H  0.30174794  0.06165060  0.10621733     0.09600
H134        H  0.40482202  0.47617429  0.11132346     0.07610
Br135      Br  0.35614707  0.45104912  0.18028753    -0.02990
C136        C  0.18729535  0.46698586  0.09550055    -0.09630
C137        C  0.18694470  0.98438278  0.13496591     0.06570
C138        C  0.15532917  0.00370879  0.14639910    -0.03390
C139        C  0.12586867  0.00653833  0.11785945    -0.07840
C140        C  0.12727006  0.99095978  0.07758311     0.05680
C141        C  0.15820119  0.47054069  0.06662046    -0.02870
Br142      Br  0.16528497  0.45153006  0.51099801    -0.02560
H143        H  0.21145124  0.45225713  0.08614519     0.09600
H144        H  0.10215815  0.02211508  0.12677352     0.07610
Br145      Br  0.15204537  0.03048434  0.19824945    -0.02990
O146        O  0.08649085  0.47313396  0.52073751    -0.80610
O147        O  0.41497828  0.04728608  0.51565713    -0.80630
O148        O  0.03399287  0.08686678  0.53787246    -0.80640
O149        O  0.46596218  0.43080378  0.53607448    -0.80580
O150        O  0.47956803  0.06053753  0.55939443    -0.80700
O151        O  0.02327815  0.44388002  0.55466703    -0.80620
O152        O  0.43496444  0.49615280  0.54468656    -0.80610
O153        O  0.08218632  0.02942259  0.54887956    -0.80650
C154        C  0.09700548  0.99809475  0.54754113     1.09080
C155        C  0.41108690  0.02174036  0.54367003     1.08970
C156        C  0.00549643  0.08657321  0.56166856     1.09100
C157        C  0.99269032  0.42467171  0.56032174     1.08980
O158        O  0.04091486  0.41508762  0.97919207    -0.80610
O159        O  0.47659915  0.08137817  0.97357134    -0.80690
O160        O  0.08992465  0.02565756  0.96168685    -0.80620
O161        O  0.41964033  0.45562032  0.97519273    -0.80600
O162        O  0.44300694  0.01025874  0.95044490    -0.80650
O163        O  0.05080323  0.48127674  0.93889274    -0.80620
O164        O  0.49064255  0.44037661  0.95155517    -0.80580
O165        O  0.03359315  0.07267525  0.94999294    -0.80650
Co166      Co  0.03457087  0.46392146  0.49709349     1.51530
Co167      Co  0.46509507  0.03397057  0.00586870     1.51690
Co168      Co  0.05650222  0.05087224  0.50017676     1.51570
Co169      Co  0.46665281  0.47426493  0.99684917     1.51470
O170        O  0.01419007  0.50967594  0.50906320    -1.42540
C171        C  0.01422766  0.41395518  0.95232224     1.09010
C172        C  0.50405131  0.09014582  0.94918154     1.09100
C173        C  0.08096526  0.50147179  0.93457951     1.09040
C174        C  0.41749721  0.98237569  0.94897155     1.09010
C175        C  0.98366607  0.28862486  0.66094954     0.02660
C176        C  0.98614439  0.25546688  0.63838073    -0.13490
C177        C  0.99226606  0.22173505  0.65933081     0.00160
C178        C  0.99535583  0.22142345  0.70340341    -0.12020
C179        C  0.99136114  0.25414597  0.72715984     0.02650
C180        C  0.98502506  0.28754519  0.70498305    -0.11440
H181        H  0.98439644  0.25617723  0.60433633     0.08250
H182        H  0.00210612  0.19555809  0.71841538     0.05770
H183        H  0.98105732  0.31330066  0.72124756     0.05620
C184        C  0.00587264  0.28732985  0.84083232     0.02660
C185        C  0.00240636  0.25342096  0.86289391    -0.13490
C186        C  0.99602134  0.21966049  0.84168656     0.00160
C187        C  0.99121335  0.21982750  0.79789056    -0.12020
C188        C  0.99489865  0.25381784  0.77445033     0.02650
C189        C  0.00275147  0.28753458  0.79688773    -0.11440
H190        H  0.00502220  0.25323478  0.89691914     0.08250
H191        H  0.98501588  0.19319334  0.78282128     0.05770
H192        H  0.00734308  0.31426501  0.78094981     0.05620
C193        C  0.22213922  0.98739880  0.66001594     0.02660
C194        C  0.25578813  0.99970992  0.64004718    -0.13490
C195        C  0.28915365  0.00597600  0.66278709     0.00160
C196        C  0.28831765  0.00220718  0.70686409    -0.12020
C197        C  0.25479701  0.98893562  0.72785661     0.02650
C198        C  0.22236795  0.97974797  0.70331590    -0.11440
H199        H  0.25608023  0.00440210  0.60626662     0.08250
H200        H  0.31373313  0.00995983  0.72425778     0.05770
H201        H  0.19680117  0.96727288  0.71756610     0.05620
C202        C  0.21524538  0.98661310  0.83952727     0.02660
C203        C  0.21807510  0.98905978  0.79573954    -0.13490
C204        C  0.25277075  0.98624601  0.77499068     0.00160
C205        C  0.28513309  0.98187907  0.79975354    -0.12020
C206        C  0.28322401  0.98153158  0.84408379     0.02650
C207        C  0.24797997  0.98418469  0.86363184    -0.11440
H208        H  0.19277085  0.99367223  0.77827254     0.08250
H209        H  0.31199736  0.97852170  0.78486742     0.05770
H210        H  0.24594585  0.98508951  0.89761993     0.05620
C211        C  0.46858290  0.12810286  0.89886142    -0.09630
C212        C  0.00230388  0.12222014  0.92005617     0.06570
C213        C  0.03377078  0.14813993  0.91439641    -0.03390
C214        C  0.03133845  0.17868271  0.88726758    -0.07840
C215        C  0.99780247  0.18447742  0.86588806     0.05680
C216        C  0.46622182  0.15886869  0.87160954    -0.02870
Br217      Br  0.41884314  0.16612572  0.84521240    -0.02560
H218        H  0.44393878  0.10904478  0.90391381     0.09600
H219        H  0.05544038  0.19881422  0.88385515     0.07610
Br220      Br  0.07938168  0.14604312  0.94644978    -0.02990
C221        C  0.04243023  0.35985975  0.91918189    -0.09630
C222        C  0.01294584  0.38411864  0.91987359     0.06570
C223        C  0.48319657  0.37811013  0.89048934    -0.03390
C224        C  0.48265057  0.34754949  0.86330618    -0.07840
C225        C  0.01105175  0.32252038  0.86461662     0.05680
C226        C  0.04165011  0.32937876  0.89207658    -0.02900
Br227      Br  0.08310478  0.29790770  0.89377309    -0.02560
H228        H  0.06613224  0.36404307  0.94037099     0.09600
H229        H  0.45899740  0.34232937  0.84220131     0.07610
Br230      Br  0.44130214  0.40862901  0.88598933    -0.02990
C231        C  0.47393347  0.15398257  0.64583761    -0.09630
C232        C  0.99635638  0.18679440  0.63525919     0.06570
C233        C  0.02266329  0.18546670  0.60226766    -0.03390
C234        C  0.02522126  0.15241530  0.57987286    -0.07840
C235        C  0.00229465  0.11958890  0.58950333     0.05680
C236        C  0.47665526  0.12058621  0.62347282    -0.02870
Br237      Br  0.44562233  0.07753764  0.64228524    -0.02560
H238        H  0.45395453  0.15441171  0.67156126     0.09600
H239        H  0.04534179  0.15276322  0.55423276     0.07610
Br240      Br  0.05752585  0.22711152  0.58741906    -0.02990
C241        C  0.45751908  0.36653579  0.58687199    -0.09630
C242        C  0.98869110  0.39293371  0.59112089     0.06570
C243        C  0.01647245  0.38577890  0.62140805    -0.03390
C244        C  0.01346928  0.35221483  0.64473550    -0.07840
C245        C  0.98340679  0.32515897  0.63851288     0.05680
C246        C  0.45483984  0.33294518  0.60994554    -0.02870
Br247      Br  0.41145535  0.29878795  0.60144596    -0.02560
H248        H  0.43557176  0.37125175  0.56425923     0.09600
H249        H  0.03543495  0.34665195  0.66704060     0.07610
Br250      Br  0.05940327  0.41990164  0.63267376    -0.02990
C251        C  0.35335331  0.95704142  0.92907310    -0.09630
C252        C  0.38509775  0.98133433  0.91915461     0.06570
C253        C  0.38366553  0.50429296  0.88283115    -0.03390
C254        C  0.35045958  0.50376478  0.85885203    -0.07840
C255        C  0.31835290  0.98016090  0.86968458     0.05680
C256        C  0.32061820  0.95595624  0.90481935    -0.02870
Br257      Br  0.28128489  0.91887107  0.92054304    -0.02560
H258        H  0.35368829  0.93864342  0.95634905     0.09600
H259        H  0.34967803  0.52220172  0.83165037     0.07610
Br260      Br  0.42625026  0.53540016  0.86277889    -0.02990
C261        C  0.12636357  0.46075000  0.90324411    -0.09630
C262        C  0.10882117  0.49457652  0.90184404     0.06570
C263        C  0.12448854  0.02427281  0.87648929    -0.03390
C264        C  0.15869629  0.02092329  0.85561318    -0.07840
C265        C  0.17789045  0.98821544  0.85982586     0.05680
C266        C  0.16069263  0.45739919  0.88246540    -0.02870
Br267      Br  0.18286923  0.41025285  0.88589621    -0.02560
H268        H  0.11460716  0.43770579  0.92267983     0.09600
H269        H  0.17092774  0.04433139  0.83707420     0.07610
Br270      Br  0.10021239  0.07005461  0.87001862    -0.02990
C271        C  0.32478862  0.04355092  0.60781498    -0.09630
C272        C  0.32437539  0.01522263  0.63882958     0.06570
C273        C  0.35432417  0.49167442  0.64041557    -0.03390
C274        C  0.38264836  0.49538874  0.60992559    -0.07840
C275        C  0.38179308  0.02197540  0.57697102     0.05680
C276        C  0.35277685  0.04697081  0.57680358    -0.02870
Br277      Br  0.34729337  0.08454731  0.03408095    -0.02560
H278        H  0.30181729  0.06179338  0.60626332     0.09600
H279        H  0.40479765  0.47620620  0.61131958     0.07610
Br280      Br  0.35613744  0.45113258  0.68030942    -0.02990
C281        C  0.18741924  0.46724430  0.59535932    -0.09630
C282        C  0.18697286  0.98446289  0.63492480     0.06570
C283        C  0.15525181  0.00359848  0.64644823    -0.03390
C284        C  0.12578974  0.00642432  0.61790645    -0.07840
C285        C  0.12729106  0.99103291  0.57754722     0.05680
C286        C  0.15833033  0.47081723  0.56647954    -0.02870
Br287      Br  0.16501075  0.45089262  0.01127871    -0.02560
H288        H  0.21164367  0.45265425  0.58592849     0.09600
H289        H  0.10199357  0.02185170  0.62688784     0.07610
Br290      Br  0.15179141  0.03012343  0.69844232    -0.02990
O291        O  0.08647965  0.97308819  0.02074552    -0.80610
O292        O  0.41498238  0.54727103  0.01567740    -0.80630
O293        O  0.03401035  0.58683584  0.03789885    -0.80640
O294        O  0.46595398  0.93077960  0.03606003    -0.80580
O295        O  0.47957583  0.56051757  0.05940632    -0.80700
O296        O  0.02326208  0.94386305  0.05466942    -0.80620
O297        O  0.43497325  0.99613150  0.04468799    -0.80610
O298        O  0.08218992  0.52937476  0.04889137    -0.80650
C299        C  0.09699643  0.49803909  0.04755859     1.09080
C300        C  0.41108980  0.52171421  0.04367860     1.08970
C301        C  0.00550971  0.58654732  0.06168836     1.09100
C302        C  0.99267637  0.92465054  0.06031552     1.08980
O303        O  0.04093861  0.91511725  0.47918427    -0.80610
O304        O  0.47658606  0.58139215  0.47356277    -0.80690
O305        O  0.08991701  0.52568805  0.46167741    -0.80620
O306        O  0.41964431  0.95562951  0.47519253    -0.80600
O307        O  0.44300946  0.51026484  0.45043943    -0.80650
O308        O  0.05079656  0.98130796  0.43888544    -0.80620
O309        O  0.49064965  0.94038851  0.45156248    -0.80580
O310        O  0.03357143  0.57268107  0.44997161    -0.80650
Co311      Co  0.03456361  0.96389588  0.99709554     1.51530
Co312      Co  0.46508903  0.53398461  0.50586114     1.51690
Co313      Co  0.05651348  0.55084383  0.00019380     1.51570
Co314      Co  0.46665449  0.97428148  0.49685150     1.51470
O315        O  0.01419340  0.00965602  0.00905996    -1.42540
C316        C  0.01424653  0.91397700  0.45232011     1.09010
C317        C  0.50403368  0.59015677  0.44916693     1.09100
C318        C  0.08095714  0.00150361  0.43456710     1.09040
C319        C  0.41750047  0.48238134  0.44896836     1.09010
C320        C  0.98366249  0.78860578  0.16094345     0.02660
C321        C  0.98614640  0.75544392  0.13838237    -0.13490
C322        C  0.99227258  0.72171675  0.15934059     0.00160
C323        C  0.99536328  0.72141514  0.20341344    -0.12020
C324        C  0.99136490  0.75414276  0.22716092     0.02650
C325        C  0.98502235  0.78753523  0.20497691    -0.11440
H326        H  0.98439996  0.75614774  0.10433775     0.08250
H327        H  0.00211777  0.69555440  0.21843307     0.05770
H328        H  0.98105169  0.81329241  0.22123713     0.05620
C329        C  0.00589054  0.78735073  0.34082493     0.02660
C330        C  0.00241243  0.75344498  0.36289318    -0.13490
C331        C  0.99601504  0.71968258  0.34169265     0.00160
C332        C  0.99120623  0.71984277  0.29789795    -0.12020
C333        C  0.99490364  0.75382716  0.27445047     0.02650
C334        C  0.00276796  0.78754773  0.29687912    -0.11440
H335        H  0.00502775  0.75326219  0.39691844     0.08250
H336        H  0.98499860  0.69320745  0.28283432     0.05770
H337        H  0.00736665  0.81427353  0.28093245     0.05620
C338        C  0.22211733  0.48729221  0.16003101     0.02660
C339        C  0.25576669  0.49953871  0.14003060    -0.13490
C340        C  0.28913256  0.50584455  0.16276114     0.00160
C341        C  0.28830350  0.50213559  0.20684514    -0.12020
C342        C  0.25478094  0.48891019  0.22786467     0.02650
C343        C  0.22234040  0.47971885  0.20334491    -0.11440
H344        H  0.25605099  0.50417013  0.10623938     0.08250
H345        H  0.31372328  0.50990587  0.22422362     0.05770
H346        H  0.19675508  0.46730888  0.21761622     0.05620
C347        C  0.21524834  0.48666623  0.33954221     0.02660
C348        C  0.21807587  0.48911035  0.29575461    -0.13490
C349        C  0.25276518  0.48626911  0.27500185     0.00160
C350        C  0.28512822  0.48189855  0.29976196    -0.12020
C351        C  0.28322374  0.48156107  0.34409227     0.02650
C352        C  0.24798310  0.48422619  0.36364438    -0.11440
H353        H  0.19277238  0.49373314  0.27829070     0.08250
H354        H  0.31198860  0.47852529  0.28487421     0.05770
H355        H  0.24595199  0.48512871  0.39763290     0.05620
C356        C  0.46856130  0.62813187  0.39887054    -0.09630
C357        C  0.00228768  0.62223421  0.42004714     0.06570
C358        C  0.03376111  0.64814460  0.41437873    -0.03390
C359        C  0.03132964  0.67869265  0.38725820    -0.07840
C360        C  0.99778871  0.68450147  0.36589653     0.05680
C361        C  0.46620122  0.65890371  0.37162776    -0.02870
Br362      Br  0.41881678  0.66618429  0.34525549    -0.02560
H363        H  0.44391290  0.60908067  0.40392960     0.09600
H364        H  0.05543723  0.69881606  0.38383683     0.07610
Br365      Br  0.07938321  0.64602778  0.44640822    -0.02990
C366        C  0.04244074  0.85986666  0.41919747    -0.09630
C367        C  0.01296967  0.88414189  0.41986771     0.06570
C368        C  0.48323919  0.87815246  0.39045609    -0.03390
C369        C  0.48269380  0.84759163  0.36327215    -0.07840
C370        C  0.01107862  0.82254474  0.36460522     0.05680
C371        C  0.04166295  0.82938754  0.39208894    -0.02900
Br372      Br  0.08310277  0.79789835  0.39381431    -0.02560
H373        H  0.06613005  0.86403522  0.44040637     0.09600
H374        H  0.45905226  0.84238592  0.34214810     0.07610
Br375      Br  0.44137313  0.90870419  0.38591086    -0.02990
C376        C  0.47394456  0.65396035  0.14585488    -0.09630
C377        C  0.99636806  0.68677195  0.13527642     0.06570
C378        C  0.02267825  0.68544150  0.10228839    -0.03390
C379        C  0.02523875  0.65238833  0.07989679    -0.07840
C380        C  0.00230958  0.61956303  0.08952496     0.05680
C381        C  0.47666695  0.62056273  0.12349128    -0.02870
Br382      Br  0.44562758  0.57751583  0.14229754    -0.02560
H383        H  0.45396290  0.65439129  0.17157566     0.09600
H384        H  0.04536153  0.65273462  0.05425903     0.07610
Br385      Br  0.05753939  0.72708686  0.08743817    -0.02990
C386        C  0.45751400  0.86650487  0.08685030    -0.09630
C387        C  0.98867668  0.89291171  0.09111189     0.06570
C388        C  0.01645205  0.88576555  0.12140893    -0.03390
C389        C  0.01345293  0.85220082  0.14473425    -0.07840
C390        C  0.98340008  0.82513638  0.13850070     0.05680
C391        C  0.45483835  0.83291380  0.10992288    -0.02870
Br392      Br  0.41146459  0.79874561  0.10140933    -0.02560
H393        H  0.43557174  0.87121482  0.06422917     0.09600
H394        H  0.03541413  0.84664500  0.16704781     0.07610
Br395      Br  0.05936860  0.91990235  0.13269235    -0.02990
C396        C  0.35335802  0.45704580  0.42906492    -0.09630
C397        C  0.38510249  0.48133959  0.41914966     0.06570
C398        C  0.38367129  0.00430552  0.38282938    -0.03390
C399        C  0.35046391  0.00378358  0.35885351    -0.07840
C400        C  0.31835420  0.48018121  0.36968771     0.05680
C401        C  0.32062052  0.45596916  0.40481557    -0.02870
Br402      Br  0.28128374  0.41888744  0.42053578    -0.02560
H403        H  0.35369380  0.43864276  0.45633650     0.09600
H404        H  0.34968127  0.02222492  0.33165567     0.07610
Br405      Br  0.42625493  0.03541737  0.36278152    -0.02990
C406        C  0.12636389  0.96078792  0.40324286    -0.09630
C407        C  0.10881030  0.99460725  0.40182995     0.06570
C408        C  0.12446747  0.52430188  0.37646970    -0.03390
C409        C  0.15868375  0.52096213  0.35560745    -0.07840
C410        C  0.17789193  0.48826442  0.35983898     0.05680
C411        C  0.16069988  0.95744558  0.38247635    -0.02870
Br412      Br  0.18288843  0.91030657  0.38592342    -0.02560
H413        H  0.11461194  0.93774443  0.42268268     0.09600
H414        H  0.17090860  0.54436895  0.33706176     0.07610
Br415      Br  0.10016285  0.57006333  0.36996300    -0.02990
C416        C  0.32473804  0.54343211  0.10777987    -0.09630
C417        C  0.32434424  0.51510566  0.13879476     0.06570
C418        C  0.35431849  0.99158973  0.14039295    -0.03390
C419        C  0.38265452  0.99533531  0.10991894    -0.07840
C420        C  0.38178520  0.52192334  0.07696919     0.05680
C421        C  0.35274069  0.54688615  0.07678656    -0.02870
Br422      Br  0.34734293  0.58463332  0.53409875    -0.02560
H423        H  0.30174675  0.56164991  0.10621866     0.09600
H424        H  0.40482351  0.97617537  0.11132303     0.07610
Br425      Br  0.35614874  0.95105053  0.18028726    -0.02990
C426        C  0.18729763  0.96698761  0.09549800    -0.09630
C427        C  0.18694328  0.48438269  0.13496750     0.06570
C428        C  0.15532867  0.50371037  0.14639987    -0.03390
C429        C  0.12586814  0.50653982  0.11786023    -0.07840
C430        C  0.12726863  0.49095952  0.07758467     0.05680
C431        C  0.15820354  0.97054271  0.06661791    -0.02870
Br432      Br  0.16528795  0.95153394  0.51099491    -0.02560
H433        H  0.21145411  0.95226010  0.08614195     0.09600
H434        H  0.10215837  0.52211789  0.12677368     0.07610
Br435      Br  0.15204645  0.53048820  0.19824889    -0.02990
O436        O  0.08649206  0.97313396  0.52073638    -0.80610
O437        O  0.41497697  0.54728574  0.51565810    -0.80630
O438        O  0.03399156  0.58686667  0.53787353    -0.80640
O439        O  0.46596322  0.93080404  0.53607375    -0.80580
O440        O  0.47956664  0.56053753  0.55939531    -0.80700
O441        O  0.02327925  0.94388016  0.55466629    -0.80620
O442        O  0.43496556  0.99615307  0.54468562    -0.80610
O443        O  0.08218497  0.52942247  0.54888089    -0.80650
C444        C  0.09700416  0.49809463  0.54754245     1.09080
C445        C  0.41108568  0.52173999  0.54367099     1.08970
C446        C  0.00549499  0.58657323  0.56166941     1.09100
C447        C  0.99269134  0.92467197  0.56032110     1.08980
O448        O  0.04091581  0.91508763  0.97919144    -0.80610
O449        O  0.47659791  0.58137794  0.97357202    -0.80690
O450        O  0.08992364  0.52565749  0.96168827    -0.80620
O451        O  0.41964136  0.95562066  0.97519185    -0.80600
O452        O  0.44300584  0.51025844  0.95044581    -0.80650
O453        O  0.05080426  0.98127657  0.93889176    -0.80620
O454        O  0.49064355  0.94037667  0.95155448    -0.80580
O455        O  0.03359213  0.57267514  0.94999408    -0.80650
Co456      Co  0.03457199  0.96392143  0.49709263     1.51530
Co457      Co  0.46509383  0.53397038  0.00586958     1.51690
Co458      Co  0.05650103  0.55087217  0.50017801     1.51570
Co459      Co  0.46665390  0.97426516  0.99684830     1.51470
O460        O  0.01419127  0.00967601  0.50906217    -1.42540
C461        C  0.01422854  0.91395514  0.95232171     1.09010
C462        C  0.50405021  0.59014565  0.94918240     1.09100
C463        C  0.08096625  0.00147167  0.93457828     1.09040
C464        C  0.41749616  0.48237535  0.94897246     1.09010
C465        C  0.98366587  0.78862549  0.66094981     0.02660
C466        C  0.98614358  0.75546749  0.63838087    -0.13490
C467        C  0.99226495  0.72173552  0.65933079     0.00160
C468        C  0.99535495  0.72142372  0.70340334    -0.12020
C469        C  0.99136080  0.75414620  0.72715995     0.02650
C470        C  0.98502510  0.78754566  0.70498333    -0.11440
H471        H  0.98439544  0.75617794  0.60433648     0.08250
H472        H  0.00210500  0.69555821  0.71841512     0.05770
H473        H  0.98105781  0.81330118  0.72124794     0.05620
C474        C  0.00587287  0.78732941  0.84083252     0.02660
C475        C  0.00240651  0.75342049  0.86289401    -0.13490
C476        C  0.99602130  0.71966007  0.84168658     0.00160
C477        C  0.99121319  0.71982727  0.79789055    -0.12020
C478        C  0.99489852  0.75381773  0.77445044     0.02650
C479        C  0.00275159  0.78753432  0.79688797    -0.11440
H480        H  0.00502238  0.75323424  0.89691923     0.08250
H481        H  0.98501558  0.69319317  0.78282118     0.05770
H482        H  0.00734326  0.81426481  0.78095020     0.05620
C483        C  0.22213786  0.48739845  0.66001726     0.02660
C484        C  0.25578679  0.49970908  0.64004828    -0.13490
C485        C  0.28915237  0.50597518  0.66278809     0.00160
C486        C  0.28831646  0.50220663  0.70686512    -0.12020
C487        C  0.25479577  0.48893550  0.72785783     0.02650
C488        C  0.22236657  0.47974804  0.70331729    -0.11440
H489        H  0.25607883  0.50440094  0.60626766     0.08250
H490        H  0.31373202  0.50995920  0.72425868     0.05770
H491        H  0.19679965  0.46727342  0.71756763     0.05620
C492        C  0.21524442  0.48661337  0.83952861     0.02660
C493        C  0.21807406  0.48906010  0.79574087    -0.13490
C494        C  0.25276962  0.48624609  0.77499192     0.00160
C495        C  0.28513196  0.48187896  0.79975470    -0.12020
C496        C  0.28322297  0.48153150  0.84408495     0.02650
C497        C  0.24797902  0.48418477  0.86363309    -0.11440
H498        H  0.19276980  0.49367274  0.77827397     0.08250
H499        H  0.31199618  0.47852142  0.78486852     0.05770
H500        H  0.24594497  0.48508957  0.89762119     0.05620
C501        C  0.46858223  0.62810251  0.89886155    -0.09630
C502        C  0.00230300  0.62221994  0.92005692     0.06570
C503        C  0.03376991  0.64813976  0.91439748    -0.03390
C504        C  0.03133792  0.67868236  0.88726830    -0.07840
C505        C  0.99780222  0.68447694  0.86588812     0.05680
C506        C  0.46622144  0.65886820  0.87160934    -0.02870
Br507      Br  0.41884304  0.66612502  0.84521147    -0.02560
H508        H  0.44393807  0.60904444  0.90391372     0.09600
H509        H  0.05543987  0.69881388  0.88385615     0.07610
Br510      Br  0.07938033  0.64604329  0.94645181    -0.02990
C511        C  0.04243086  0.85985948  0.91918163    -0.09630
C512        C  0.01294650  0.88411841  0.91987332     0.06570
C513        C  0.48319716  0.87810988  0.89048920    -0.03390
C514        C  0.48265096  0.84754909  0.86330627    -0.07840
C515        C  0.01105203  0.82251988  0.86461683     0.05680
C516        C  0.04165055  0.82937834  0.89207655    -0.02900
Br517      Br  0.08310516  0.79790720  0.89377298    -0.02560
H518        H  0.06613299  0.86404291  0.94037053     0.09600
H519        H  0.45899774  0.84232897  0.84220148     0.07610
Br520      Br  0.44130284  0.90862888  0.88598908    -0.02990
C521        C  0.47393189  0.65398314  0.64583770    -0.09630
C522        C  0.99635487  0.68679487  0.63525909     0.06570
C523        C  0.02266171  0.68546700  0.60226751    -0.03390
C524        C  0.02521964  0.65241547  0.57987299    -0.07840
C525        C  0.00229306  0.61958911  0.58950379     0.05680
C526        C  0.47665364  0.62058664  0.62347319    -0.02870
Br527      Br  0.44562065  0.57753820  0.64228587    -0.02560
H528        H  0.45395299  0.65441244  0.67156137     0.09600
H529        H  0.04534014  0.65276323  0.55423288     0.07610
Br530      Br  0.05752431  0.72711168  0.58741855    -0.02990
C531        C  0.45751951  0.86653657  0.58687199    -0.09630
C532        C  0.98869191  0.89293414  0.59112052     0.06570
C533        C  0.01647327  0.88577913  0.62140761    -0.03390
C534        C  0.01346973  0.85221521  0.64473538    -0.07840
C535        C  0.98340687  0.82515968  0.63851315     0.05680
C536        C  0.45483991  0.83294612  0.60994583    -0.02870
Br537      Br  0.41145496  0.79878938  0.60144668    -0.02560
H538        H  0.43557217  0.87125267  0.56425931     0.09600
H539        H  0.03543544  0.84665215  0.66704036     0.07610
Br540      Br  0.05940461  0.91990136  0.63267273    -0.02990
C541        C  0.35335226  0.45704112  0.92907409    -0.09630
C542        C  0.38509672  0.48133398  0.91915556     0.06570
C543        C  0.38366654  0.00429331  0.88283020    -0.03390
C544        C  0.35046060  0.00376506  0.85885103    -0.07840
C545        C  0.31835187  0.48016069  0.86968563     0.05680
C546        C  0.32061713  0.45595600  0.90482039    -0.02870
Br547      Br  0.28128376  0.41887092  0.92054413    -0.02560
H548        H  0.35368723  0.43864313  0.95635004     0.09600
H549        H  0.34967904  0.02220199  0.83164936     0.07610
Br550      Br  0.42625122  0.03540061  0.86277801    -0.02990
C551        C  0.12636456  0.96074979  0.90324295    -0.09630
C552        C  0.10882208  0.99457627  0.90184274     0.06570
C553        C  0.12448779  0.52427321  0.87649091    -0.03390
C554        C  0.15869555  0.52092370  0.85561483    -0.07840
C555        C  0.17788956  0.48821575  0.85982727     0.05680
C556        C  0.16069361  0.95739895  0.88246420    -0.02870
Br557      Br  0.18287033  0.91025270  0.88589525    -0.02560
H558        H  0.11460825  0.93770566  0.92267884     0.09600
H559        H  0.17092710  0.54433189  0.83707606     0.07610
Br560      Br  0.10021188  0.57005519  0.87002067    -0.02990
C561        C  0.32478733  0.54355022  0.60781608    -0.09630
C562        C  0.32437406  0.51522176  0.63883047     0.06570
C563        C  0.35432555  0.99167534  0.64041485    -0.03390
C564        C  0.38264970  0.99538951  0.60992484    -0.07840
C565        C  0.38179182  0.52197486  0.57697199     0.05680
C566        C  0.35277563  0.54697032  0.57680476    -0.02870
Br567      Br  0.34729256  0.58454742  0.03408282    -0.02560
H568        H  0.30181603  0.56179272  0.60626457     0.09600
H569        H  0.40479904  0.97620702  0.61131897     0.07610
Br570      Br  0.35613894  0.95113370  0.68030893    -0.02990
C571        C  0.18742128  0.96724563  0.59535715    -0.09630
C572        C  0.18697144  0.48446273  0.63492631     0.06570
C573        C  0.15525105  0.50359953  0.64644917    -0.03390
C574        C  0.12578897  0.50642536  0.61790740    -0.07840
C575        C  0.12728964  0.49103271  0.57754870     0.05680
C576        C  0.15833242  0.97081872  0.56647736    -0.02870
Br577      Br  0.16501436  0.95089797  0.01127484    -0.02560
H578        H  0.21164615  0.95265648  0.58592583     0.09600
H579        H  0.10199335  0.52185369  0.62688836     0.07610
Br580      Br  0.15179179  0.53012606  0.69844236    -0.02990
O581        O  0.58647850  0.47308815  0.02074664    -0.80610
O582        O  0.91498370  0.04727150  0.01567652    -0.80630
O583        O  0.53401166  0.08683601  0.03789783    -0.80640
O584        O  0.96595290  0.43077927  0.03606073    -0.80580
O585        O  0.97957724  0.06051764  0.05940551    -0.80700
O586        O  0.52326105  0.44386285  0.05467012    -0.80620
O587        O  0.93497213  0.49613116  0.04468891    -0.80610
O588        O  0.58219128  0.02937496  0.04889007    -0.80650
C589        C  0.59699778  0.99803930  0.04755726     1.09080
C590        C  0.91109102  0.02171469  0.04367770     1.08970
C591        C  0.50551113  0.08654736  0.06168756     1.09100
C592        C  0.49267542  0.42465022  0.06031614     1.08980
O593        O  0.54093761  0.41511732  0.47918493    -0.80610
O594        O  0.97658738  0.08139231  0.47356201    -0.80690
O595        O  0.58991800  0.02568804  0.46167602    -0.80620
O596        O  0.91964331  0.45562929  0.47519345    -0.80600
O597        O  0.94301060  0.01026507  0.45043848    -0.80650
O598        O  0.55079545  0.48130820  0.43888644    -0.80620
O599        O  0.99064867  0.44038854  0.45156322    -0.80580
O600        O  0.53357239  0.07268106  0.44997044    -0.80650
Co601      Co  0.53456256  0.46389583  0.99709637     1.51530
Co602      Co  0.96509032  0.03398476  0.50586020     1.51690
Co603      Co  0.55651467  0.05084399  0.00019260     1.51570
Co604      Co  0.96665343  0.47428135  0.49685241     1.51470
O605        O  0.51419224  0.50965587  0.00906095    -1.42540
C606        C  0.51424560  0.41397710  0.45232069     1.09010
C607        C  0.00403486  0.09015690  0.44916600     1.09100
C608        C  0.58095607  0.50150382  0.43456834     1.09040
C609        C  0.91750157  0.98238161  0.44896745     1.09010
C610        C  0.48366279  0.28860518  0.16094331     0.02660
C611        C  0.48614729  0.25544334  0.13838235    -0.13490
C612        C  0.49227378  0.22171632  0.15934072     0.00160
C613        C  0.49536426  0.22141490  0.20341362    -0.12020
C614        C  0.49136534  0.25414255  0.22716092     0.02650
C615        C  0.48502241  0.28753479  0.20497675    -0.11440
H616        H  0.48440105  0.25614707  0.10433771     0.08250
H617        H  0.50211898  0.19555431  0.21843342     0.05770
H618        H  0.48105130  0.31329192  0.22123687     0.05620
C619        C  0.50589032  0.28735116  0.34082487     0.02660
C620        C  0.50241231  0.25344544  0.36289321    -0.13490
C621        C  0.49601513  0.21968299  0.34169274     0.00160
C622        C  0.49120648  0.21984301  0.29789807    -0.12020
C623        C  0.49490385  0.25382729  0.27445047     0.02650
C624        C  0.50276788  0.28754800  0.29687901    -0.11440
H625        H  0.50502758  0.25326271  0.39691847     0.08250
H626        H  0.48499901  0.19320762  0.28283450     0.05770
H627        H  0.50736649  0.31427374  0.28093221     0.05620
C628        C  0.72211869  0.98729254  0.16002970     0.02660
C629        C  0.75576802  0.99953968  0.14002957    -0.13490
C630        C  0.78913383  0.00584544  0.16276023     0.00160
C631        C  0.78830468  0.00213609  0.20684419    -0.12020
C632        C  0.75478218  0.98891014  0.22786346     0.02650
C633        C  0.72234180  0.97971860  0.20334351    -0.11440
H634        H  0.75605239  0.00417153  0.10623843     0.08250
H635        H  0.81372435  0.00990645  0.22422282     0.05770
H636        H  0.69675667  0.96730802  0.21761465     0.05620
C637        C  0.71524931  0.98666568  0.33954090     0.02660
C638        C  0.71807691  0.98910971  0.29575330    -0.13490
C639        C  0.75276630  0.98626876  0.27500063     0.00160
C640        C  0.78512935  0.98189842  0.29976082    -0.12020
C641        C  0.78322479  0.98156093  0.34409113     0.02650
C642        C  0.74798407  0.98422586  0.36364314    -0.11440
H643        H  0.69277341  0.99373229  0.27828930     0.08250
H644        H  0.81198979  0.97852536  0.28487312     0.05770
H645        H  0.74595290  0.98512844  0.39763166     0.05620
C646        C  0.96856208  0.12813219  0.39887034    -0.09630
C647        C  0.50228854  0.12223433  0.42004640     0.06570
C648        C  0.53376194  0.14814472  0.41437781    -0.03390
C649        C  0.53133015  0.17869300  0.38725768    -0.07840
C650        C  0.49778899  0.18450194  0.36589657     0.05680
C651        C  0.96620171  0.15890421  0.37162794    -0.02870
Br652      Br  0.91881702  0.16618498  0.34525634    -0.02560
H653        H  0.94391373  0.10908094  0.40392954     0.09600
H654        H  0.55543771  0.19881642  0.38383613     0.07610
Br655      Br  0.57938445  0.14602756  0.44640647    -0.02990
C656        C  0.54244010  0.35986702  0.41919777    -0.09630
C657        C  0.51296894  0.38414214  0.41986806     0.06570
C658        C  0.98323865  0.37815279  0.39045625    -0.03390
C659        C  0.98269346  0.34759209  0.36327209    -0.07840
C660        C  0.51107829  0.32254523  0.36460515     0.05680
C661        C  0.54166251  0.32938803  0.39208904    -0.02900
Br662      Br  0.58310245  0.29789898  0.39381443    -0.02560
H663        H  0.56612932  0.36403554  0.44040679     0.09600
H664        H  0.95905197  0.34238638  0.34214797     0.07610
Br665      Br  0.94137249  0.40870441  0.38591111    -0.02990
C666        C  0.97394619  0.15395982  0.14585490    -0.09630
C667        C  0.49636963  0.18677152  0.13527663     0.06570
C668        C  0.52267988  0.18544125  0.10228862    -0.03390
C669        C  0.52524039  0.15238822  0.07989672    -0.07840
C670        C  0.50231117  0.11956288  0.08952456     0.05680
C671        C  0.97666862  0.12056234  0.12349102    -0.02870
Br672      Br  0.94562935  0.07751529  0.14229703    -0.02560
H673        H  0.95396451  0.15439058  0.17157568     0.09600
H674        H  0.54536318  0.15273467  0.05425895     0.07610
Br675      Br  0.55754098  0.22708674  0.08743875    -0.02990
C676        C  0.95751350  0.36650407  0.08685036    -0.09630
C677        C  0.48867595  0.39291126  0.09111228     0.06570
C678        C  0.51645127  0.38576537  0.12140946    -0.03390
C679        C  0.51345252  0.35220051  0.14473450    -0.07840
C680        C  0.48340008  0.32513570  0.13850055     0.05680
C681        C  0.95483822  0.33291286  0.10992267    -0.02870
Br682      Br  0.91146493  0.29874416  0.10140871    -0.02560
H683        H  0.93557127  0.37121386  0.06422914     0.09600
H684        H  0.53541368  0.34664491  0.16704821     0.07610
Br685      Br  0.55936725  0.41990274  0.13269348    -0.02990
C686        C  0.85335912  0.95704598  0.42906396    -0.09630
C687        C  0.88510356  0.98133983  0.41914873     0.06570
C688        C  0.88367030  0.50430536  0.38283040    -0.03390
C689        C  0.85046290  0.50378352  0.35885460    -0.07840
C690        C  0.81835526  0.98018123  0.36968667     0.05680
C691        C  0.82062162  0.95596924  0.40481457    -0.02870
Br692      Br  0.78128493  0.91888742  0.42053476    -0.02560
H693        H  0.85369491  0.93864295  0.45633555     0.09600
H694        H  0.84968025  0.52222488  0.33165679     0.07610
Br695      Br  0.92625399  0.53541710  0.36278248    -0.02990
C696        C  0.62636288  0.46078827  0.40324408    -0.09630
C697        C  0.60880929  0.49460760  0.40183126     0.06570
C698        C  0.62446834  0.02430136  0.37646819    -0.03390
C699        C  0.65868458  0.02096153  0.35560588    -0.07840
C700        C  0.67789285  0.98826387  0.35983761     0.05680
C701        C  0.66069891  0.45744602  0.38247765    -0.02870
Br702      Br  0.68288742  0.41030698  0.38592452    -0.02560
H703        H  0.61461087  0.43774470  0.42268374     0.09600
H704        H  0.67090936  0.04436826  0.33705999     0.07610
Br705      Br  0.60016359  0.07006270  0.36996114    -0.02990
C706        C  0.82473931  0.04343290  0.10777884    -0.09630
C707        C  0.82434558  0.01510664  0.13879396     0.06570
C708        C  0.85431703  0.49158855  0.14039355    -0.03390
C709        C  0.88265309  0.49533430  0.10991957    -0.07840
C710        C  0.88178646  0.02192400  0.07696830     0.05680
C711        C  0.85274188  0.04688672  0.07678544    -0.02870
Br712      Br  0.84734394  0.08463334  0.53409689    -0.02560
H713        H  0.80174796  0.06165063  0.10621746     0.09600
H714        H  0.90482198  0.47617424  0.11132343     0.07610
Br715      Br  0.85614702  0.45104902  0.18028747    -0.02990
C716        C  0.68729532  0.46698583  0.09550060    -0.09630
C717        C  0.68694470  0.98438279  0.13496596     0.06570
C718        C  0.65532922  0.00370890  0.14639910    -0.03390
C719        C  0.62586873  0.00653843  0.11785944    -0.07840
C720        C  0.62727007  0.99095979  0.07758314     0.05680
C721        C  0.65820117  0.47054065  0.06662050    -0.02870
Br722      Br  0.66528505  0.45153033  0.51099790    -0.02560
H723        H  0.71145119  0.45225704  0.08614528     0.09600
H724        H  0.60215824  0.02211525  0.12677347     0.07610
Br725      Br  0.65204549  0.03048457  0.19824938    -0.02990
O726        O  0.58649081  0.47313395  0.52073754    -0.80610
O727        O  0.91497836  0.04728613  0.51565711    -0.80630
O728        O  0.53399277  0.08686677  0.53787246    -0.80640
O729        O  0.96596222  0.43080381  0.53607450    -0.80580
O730        O  0.97956811  0.06053757  0.55939441    -0.80700
O731        O  0.52327810  0.44388000  0.55466705    -0.80620
O732        O  0.93496448  0.49615285  0.54468656    -0.80610
O733        O  0.58218624  0.02942261  0.54887957    -0.80650
C734        C  0.59700542  0.99809477  0.54754115     1.09080
C735        C  0.91108696  0.02174042  0.54367002     1.08970
C736        C  0.50549633  0.08657319  0.56166857     1.09100
C737        C  0.49269027  0.42467168  0.56032175     1.08980
O738        O  0.54091492  0.41508765  0.97919202    -0.80610
O739        O  0.97659916  0.08137821  0.97357137    -0.80690
O740        O  0.58992468  0.02565760  0.96168687    -0.80620
O741        O  0.91964029  0.45562036  0.97519273    -0.80600
O742        O  0.94300693  0.01025879  0.95044491    -0.80650
O743        O  0.55080325  0.48127678  0.93889271    -0.80620
O744        O  0.99064252  0.44037660  0.95155518    -0.80580
O745        O  0.53359317  0.07267528  0.94999296    -0.80650
Co746      Co  0.53457083  0.46392143  0.49709352     1.51530
Co747      Co  0.96509506  0.03397060  0.00586872     1.51690
Co748      Co  0.55650214  0.05087223  0.50017677     1.51570
Co749      Co  0.96665279  0.47426494  0.99684917     1.51470
O750        O  0.51419002  0.50967591  0.50906321    -1.42540
C751        C  0.51422771  0.41395520  0.95232221     1.09010
C752        C  0.00405132  0.09014584  0.94918155     1.09100
C753        C  0.58096528  0.50147184  0.93457947     1.09040
C754        C  0.91749719  0.98237576  0.94897156     1.09010
C755        C  0.48366595  0.28862484  0.66094956     0.02660
C756        C  0.48614426  0.25546686  0.63838075    -0.13490
C757        C  0.49226592  0.22173503  0.65933083     0.00160
C758        C  0.49535567  0.22142342  0.70340342    -0.12020
C759        C  0.49136099  0.25414594  0.72715985     0.02650
C760        C  0.48502492  0.28754517  0.70498307    -0.11440
H761        H  0.48439633  0.25617721  0.60433634     0.08250
H762        H  0.50210595  0.19555806  0.71841539     0.05770
H763        H  0.48105718  0.31330064  0.72124758     0.05620
C764        C  0.50587248  0.28732981  0.84083235     0.02660
C765        C  0.50240614  0.25342092  0.86289394    -0.13490
C766        C  0.49602114  0.21966046  0.84168658     0.00160
C767        C  0.49121316  0.21982747  0.79789057    -0.12020
C768        C  0.49489849  0.25381781  0.77445035     0.02650
C769        C  0.50275133  0.28753455  0.79688775    -0.11440
H770        H  0.50502194  0.25323473  0.89691917     0.08250
H771        H  0.48501571  0.19319331  0.78282128     0.05770
H772        H  0.50734298  0.31426497  0.78094983     0.05620
C773        C  0.72213923  0.98739898  0.66001590     0.02660
C774        C  0.75578813  0.99971012  0.64004713    -0.13490
C775        C  0.78915366  0.00597620  0.66278704     0.00160
C776        C  0.78831766  0.00220739  0.70686404    -0.12020
C777        C  0.75479703  0.98893582  0.72785656     0.02650
C778        C  0.72236797  0.97974815  0.70331585    -0.11440
H779        H  0.75608024  0.00440230  0.60626658     0.08250
H780        H  0.81373314  0.00996005  0.72425772     0.05770
H781        H  0.69680121  0.96727303  0.71756607     0.05620
C782        C  0.71524540  0.98661327  0.83952722     0.02660
C783        C  0.71807513  0.98905997  0.79573949    -0.13490
C784        C  0.75277078  0.98624621  0.77499063     0.00160
C785        C  0.78513311  0.98187926  0.79975349    -0.12020
C786        C  0.78322403  0.98153174  0.84408374     0.02650
C787        C  0.74798000  0.98418485  0.86363179    -0.11440
H788        H  0.69277087  0.99367242  0.77827249     0.08250
H789        H  0.81199739  0.97852189  0.78486736     0.05770
H790        H  0.74594587  0.98508964  0.89761988     0.05620
C791        C  0.96858295  0.12810296  0.89886146    -0.09630
C792        C  0.50230384  0.12222011  0.92005614     0.06570
C793        C  0.53377069  0.14813995  0.91439641    -0.03390
C794        C  0.53133831  0.17868274  0.88726760    -0.07840
C795        C  0.49780232  0.18447739  0.86588806     0.05680
C796        C  0.96622193  0.15886879  0.87160957    -0.02870
Br797      Br  0.91884325  0.16612591  0.84521246    -0.02560
H798        H  0.94393880  0.10904493  0.90391387     0.09600
H799        H  0.55544021  0.19881429  0.88385519     0.07610
Br800      Br  0.57938159  0.14604323  0.94644982    -0.02990
C801        C  0.54243010  0.35985957  0.91918208    -0.09630
C802        C  0.51294587  0.38411865  0.91987357     0.06570
C803        C  0.98319641  0.37810995  0.89048957    -0.03390
C804        C  0.98265047  0.34754933  0.86330636    -0.07840
C805        C  0.51105167  0.32252034  0.86461665     0.05680
C806        C  0.54164994  0.32937857  0.89207679    -0.02900
Br807      Br  0.58310444  0.29790729  0.89377356    -0.02560
H808        H  0.56613201  0.36404275  0.94037133     0.09600
H809        H  0.95899721  0.34232908  0.84220165     0.07610
Br810      Br  0.94130169  0.40862847  0.88598997    -0.02990
C811        C  0.97393362  0.15398259  0.64583762    -0.09630
C812        C  0.49635625  0.18679438  0.63525921     0.06570
C813        C  0.52266319  0.18546668  0.60226771    -0.03390
C814        C  0.52522117  0.15241528  0.57987291    -0.07840
C815        C  0.50229454  0.11958888  0.58950335     0.05680
C816        C  0.97665540  0.12058623  0.62347283    -0.02870
Br817      Br  0.94562250  0.07753765  0.64228529    -0.02560
H818        H  0.95395471  0.15441172  0.67156130     0.09600
H819        H  0.54534172  0.15276320  0.55423284     0.07610
Br820      Br  0.55752577  0.22711149  0.58741915    -0.02990
C821        C  0.95751915  0.36653581  0.58687198    -0.09630
C822        C  0.48869103  0.39293369  0.59112090     0.06570
C823        C  0.51647237  0.38577887  0.62140808    -0.03390
C824        C  0.51346918  0.35221481  0.64473552    -0.07840
C825        C  0.48340668  0.32515895  0.63851290     0.05680
C826        C  0.95483994  0.33294520  0.60994553    -0.02870
Br827      Br  0.91145545  0.29878795  0.60144596    -0.02560
H828        H  0.93557183  0.37125176  0.56425924     0.09600
H829        H  0.53543484  0.34665192  0.66704063     0.07610
Br830      Br  0.55940319  0.41990160  0.63267380    -0.02990
C831        C  0.85335329  0.95704150  0.92907304    -0.09630
C832        C  0.88509775  0.98133441  0.91915460     0.06570
C833        C  0.88366553  0.50429305  0.88283115    -0.03390
C834        C  0.85045959  0.50376488  0.85885203    -0.07840
C835        C  0.81835292  0.98016104  0.86968453     0.05680
C836        C  0.82061820  0.95595633  0.90481927    -0.02870
Br837      Br  0.78128488  0.91887115  0.92054290    -0.02560
H838        H  0.85368826  0.93864347  0.95634897     0.09600
H839        H  0.84967804  0.52220184  0.83165037     0.07610
Br840      Br  0.92625027  0.53540027  0.86277893    -0.02990
C841        C  0.62636359  0.46075007  0.90324405    -0.09630
C842        C  0.60882118  0.49457659  0.90184400     0.06570
C843        C  0.62448857  0.02427293  0.87648931    -0.03390
C844        C  0.65869631  0.02092343  0.85561318    -0.07840
C845        C  0.67789047  0.98821558  0.85982581     0.05680
C846        C  0.66069265  0.45739927  0.88246534    -0.02870
Br847      Br  0.68286925  0.41025294  0.88589610    -0.02560
H848        H  0.61460718  0.43770585  0.92267976     0.09600
H849        H  0.67092776  0.04433156  0.83707423     0.07610
Br850      Br  0.60021241  0.07005473  0.87001870    -0.02990
C851        C  0.82478864  0.04355104  0.60781487    -0.09630
C852        C  0.82437541  0.01522279  0.63882952     0.06570
C853        C  0.85432421  0.49167456  0.64041557    -0.03390
C854        C  0.88264840  0.49538885  0.60992560    -0.07840
C855        C  0.88179313  0.02197550  0.57697099     0.05680
C856        C  0.85277688  0.04697089  0.57680347    -0.02870
Br857      Br  0.84729343  0.08454743  0.03408112    -0.02560
H858        H  0.80181730  0.06179349  0.60626315     0.09600
H859        H  0.90479770  0.47620633  0.61131963     0.07610
Br860      Br  0.85613748  0.45113275  0.68030947    -0.02990
C861        C  0.68741928  0.46724445  0.59535925    -0.09630
C862        C  0.68697286  0.98446303  0.63492476     0.06570
C863        C  0.65525175  0.00359850  0.64644825    -0.03390
C864        C  0.62578965  0.00642430  0.61790648    -0.07840
C865        C  0.62729101  0.99103296  0.57754722     0.05680
C866        C  0.65833036  0.47081736  0.56647948    -0.02870
Br867      Br  0.66501070  0.45089246  0.01127880    -0.02560
H868        H  0.71164375  0.45265447  0.58592838     0.09600
H869        H  0.60199344  0.02185159  0.62688791     0.07610
Br870      Br  0.65179127  0.03012336  0.69844238    -0.02990
O871        O  0.58647970  0.97308821  0.02074551    -0.80610
O872        O  0.91498238  0.54727105  0.01567743    -0.80630
O873        O  0.53401035  0.58683585  0.03789883    -0.80640
O874        O  0.96595392  0.93077961  0.03606004    -0.80580
O875        O  0.97957583  0.56051756  0.05940634    -0.80700
O876        O  0.52326214  0.94386303  0.05466939    -0.80620
O877        O  0.93497324  0.99613153  0.04468802    -0.80610
O878        O  0.58218994  0.52937479  0.04889134    -0.80650
C879        C  0.59699646  0.49803912  0.04755857     1.09080
C880        C  0.91108980  0.52171422  0.04367862     1.08970
C881        C  0.50550970  0.58654732  0.06168834     1.09100
C882        C  0.49267642  0.92465052  0.06031549     1.08980
O883        O  0.54093856  0.91511724  0.47918428    -0.80610
O884        O  0.97658613  0.58139218  0.47356275    -0.80690
O885        O  0.58991696  0.52568805  0.46167743    -0.80620
O886        O  0.91964435  0.95562954  0.47519257    -0.80600
O887        O  0.94300949  0.51026486  0.45043942    -0.80650
O888        O  0.55079653  0.98130795  0.43888546    -0.80620
O889        O  0.99064968  0.94038852  0.45156250    -0.80580
O890        O  0.53357135  0.57268104  0.44997162    -0.80650
Co891      Co  0.53456366  0.96389589  0.99709552     1.51530
Co892      Co  0.96508908  0.53398465  0.50586112     1.51690
Co893      Co  0.55651348  0.55084386  0.00019378     1.51570
Co894      Co  0.96665454  0.97428150  0.49685152     1.51470
O895        O  0.51419342  0.00965601  0.00905997    -1.42540
C896        C  0.51424650  0.91397699  0.45232010     1.09010
C897        C  0.00403376  0.59015681  0.44916692     1.09100
C898        C  0.58095711  0.00150361  0.43456713     1.09040
C899        C  0.91750051  0.48238137  0.44896836     1.09010
C900        C  0.48366253  0.78860578  0.16094346     0.02660
C901        C  0.48614645  0.75544392  0.13838238    -0.13490
C902        C  0.49227262  0.72171674  0.15934060     0.00160
C903        C  0.49536328  0.72141513  0.20341345    -0.12020
C904        C  0.49136489  0.75414274  0.22716093     0.02650
C905        C  0.48502237  0.78753522  0.20497691    -0.11440
H906        H  0.48440004  0.75614774  0.10433775     0.08250
H907        H  0.50211775  0.69555438  0.21843308     0.05770
H908        H  0.48105170  0.81329240  0.22123713     0.05620
C909        C  0.50589046  0.78735069  0.34082496     0.02660
C910        C  0.50241231  0.75344494  0.36289320    -0.13490
C911        C  0.49601493  0.71968255  0.34169266     0.00160
C912        C  0.49120616  0.71984275  0.29789796    -0.12020
C913        C  0.49490359  0.75382714  0.27445048     0.02650
C914        C  0.50276790  0.78754770  0.29687914    -0.11440
H915        H  0.50502761  0.75326214  0.39691846     0.08250
H916        H  0.48499853  0.69320742  0.28283431     0.05770
H917        H  0.50736663  0.81427350  0.28093248     0.05620
C918        C  0.72211732  0.48729222  0.16003103     0.02660
C919        C  0.75576669  0.49953870  0.14003063    -0.13490
C920        C  0.78913255  0.50584452  0.16276118     0.00160
C921        C  0.78830350  0.50213556  0.20684518    -0.12020
C922        C  0.75478093  0.48891018  0.22786470     0.02650
C923        C  0.72234038  0.47971887  0.20334494    -0.11440
H924        H  0.75605099  0.50417011  0.10623941     0.08250
H925        H  0.81372328  0.50990583  0.22422365     0.05770
H926        H  0.69675505  0.46730893  0.21761625     0.05620
C927        C  0.71524833  0.48666621  0.33954225     0.02660
C928        C  0.71807586  0.48911033  0.29575465    -0.13490
C929        C  0.75276517  0.48626910  0.27500189     0.00160
C930        C  0.78512822  0.48189855  0.29976200    -0.12020
C931        C  0.78322373  0.48156107  0.34409231     0.02650
C932        C  0.74798309  0.48422618  0.36364442    -0.11440
H933        H  0.69277237  0.49373313  0.27829075     0.08250
H934        H  0.81198859  0.47852529  0.28487425     0.05770
H935        H  0.74595198  0.48512869  0.39763294     0.05620
C936        C  0.96856139  0.62813191  0.39887053    -0.09630
C937        C  0.50228759  0.62223418  0.42004715     0.06570
C938        C  0.53376103  0.64814456  0.41437872    -0.03390
C939        C  0.53132955  0.67869261  0.38725819    -0.07840
C940        C  0.49778861  0.68450143  0.36589653     0.05680
C941        C  0.96620132  0.65890375  0.37162775    -0.02870
Br942      Br  0.91881688  0.66618434  0.34525548    -0.02560
H943        H  0.94391299  0.60908071  0.40392958     0.09600
H944        H  0.55543714  0.69881602  0.38383681     0.07610
Br945      Br  0.57938314  0.64602775  0.44640819    -0.02990
C946        C  0.54244065  0.85986658  0.41919756    -0.09630
C947        C  0.51296963  0.88414187  0.41986772     0.06570
C948        C  0.98323919  0.87815243  0.39045615    -0.03390
C949        C  0.98269381  0.84759161  0.36327219    -0.07840
C950        C  0.51107855  0.82254470  0.36460526     0.05680
C951        C  0.54166285  0.82938745  0.39208904    -0.02900
Br952      Br  0.58310262  0.79789819  0.39381450    -0.02560
H953        H  0.56612993  0.86403510  0.44040650     0.09600
H954        H  0.95905224  0.84238587  0.34214819     0.07610
Br955      Br  0.94137304  0.90870406  0.38591105    -0.02990
C956        C  0.97394455  0.65396035  0.14585489    -0.09630
C957        C  0.49636808  0.68677195  0.13527643     0.06570
C958        C  0.52267828  0.68544149  0.10228841    -0.03390
C959        C  0.52523877  0.65238832  0.07989680    -0.07840
C960        C  0.50230958  0.61956304  0.08952494     0.05680
C961        C  0.97666695  0.62056273  0.12349130    -0.02870
Br962      Br  0.94562761  0.57751582  0.14229757    -0.02560
H963        H  0.95396290  0.65439128  0.17157568     0.09600
H964        H  0.54536156  0.65273462  0.05425904     0.07610
Br965      Br  0.55753945  0.72708684  0.08743820    -0.02990
C966        C  0.95751391  0.86650492  0.08685037    -0.09630
C967        C  0.48867673  0.89291169  0.09111186     0.06570
C968        C  0.51645206  0.88576558  0.12140897    -0.03390
C969        C  0.51345294  0.85220085  0.14473430    -0.07840
C970        C  0.48340012  0.82513637  0.13850070     0.05680
C971        C  0.95483827  0.83291384  0.10992294    -0.02870
Br972      Br  0.91146448  0.79874569  0.10140947    -0.02560
H973        H  0.93557163  0.87121489  0.06422929     0.09600
H974        H  0.53541411  0.84664506  0.16704791     0.07610
Br975      Br  0.55936855  0.91990243  0.13269246    -0.02990
C976        C  0.85335805  0.45704582  0.42906495    -0.09630
C977        C  0.88510251  0.48133962  0.41914968     0.06570
C978        C  0.88367131  0.00430555  0.38282942    -0.03390
C979        C  0.85046392  0.00378361  0.35885356    -0.07840
C980        C  0.81835420  0.48018122  0.36968775     0.05680
C981        C  0.82062053  0.45596917  0.40481561    -0.02870
Br982      Br  0.78128377  0.41888744  0.42053583    -0.02560
H983        H  0.85369383  0.43864277  0.45633652     0.09600
H984        H  0.84968127  0.02222494  0.33165573     0.07610
Br985      Br  0.92625494  0.03541741  0.36278155    -0.02990
C986        C  0.62636389  0.96078793  0.40324293    -0.09630
C987        C  0.60881028  0.99460725  0.40183000     0.06570
C988        C  0.62446744  0.52430185  0.37646972    -0.03390
C989        C  0.65868373  0.52096210  0.35560748    -0.07840
C990        C  0.67789192  0.48826439  0.35983903     0.05680
C991        C  0.66069989  0.95744559  0.38247644    -0.02870
Br992      Br  0.68288846  0.91030659  0.38592354    -0.02560
H993        H  0.61461194  0.93774444  0.42268275     0.09600
H994        H  0.67090857  0.54436891  0.33706177     0.07610
Br995      Br  0.60016280  0.57006328  0.36996298    -0.02990
C996        C  0.82473806  0.54343212  0.10777994    -0.09630
C997        C  0.82434424  0.51510563  0.13879479     0.06570
C998        C  0.85431847  0.99158969  0.14039296    -0.03390
C999        C  0.88265450  0.99533528  0.10991895    -0.07840
C1000       C  0.88178520  0.52192334  0.07696922     0.05680
C1001       C  0.85274071  0.54688617  0.07678664    -0.02870
Br1002     Br  0.84734294  0.58463332  0.53409860    -0.02560
H1003       H  0.80174677  0.56164994  0.10621876     0.09600
H1004       H  0.90482348  0.97617532  0.11132300     0.07610
Br1005     Br  0.85614869  0.95105043  0.18028721    -0.02990
C1006       C  0.68729759  0.96698754  0.09549811    -0.09630
C1007       C  0.68694328  0.48438271  0.13496753     0.06570
C1008       C  0.65532870  0.50371046  0.14639984    -0.03390
C1009       C  0.62586819  0.50653993  0.11786019    -0.07840
C1010       C  0.62726865  0.49095956  0.07758467     0.05680
C1011       C  0.65820351  0.97054262  0.06661801    -0.02870
Br1012     Br  0.66528803  0.95153427  0.51099479    -0.02560
H1013       H  0.71145405  0.95225996  0.08614210     0.09600
H1014       H  0.60215844  0.52211804  0.12677361     0.07610
Br1015     Br  0.65204653  0.53048837  0.19824882    -0.02990
O1016       O  0.58649200  0.97313396  0.52073641    -0.80610
O1017       O  0.91497703  0.54728580  0.51565807    -0.80630
O1018       O  0.53399148  0.58686665  0.53787354    -0.80640
O1019       O  0.96596327  0.93080407  0.53607379    -0.80580
O1020       O  0.97956670  0.56053757  0.55939529    -0.80700
O1021       O  0.52327918  0.94388014  0.55466630    -0.80620
O1022       O  0.93496562  0.99615313  0.54468564    -0.80610
O1023       O  0.58218491  0.52942247  0.54888090    -0.80650
C1024       C  0.59700412  0.49809464  0.54754246     1.09080
C1025       C  0.91108573  0.52174006  0.54367098     1.08970
C1026       C  0.50549491  0.58657321  0.56166942     1.09100
C1027       C  0.49269127  0.92467194  0.56032108     1.08980
O1028       O  0.54091589  0.91508765  0.97919139    -0.80610
O1029       O  0.97659793  0.58137797  0.97357205    -0.80690
O1030       O  0.58992365  0.52565754  0.96168824    -0.80620
O1031       O  0.91964130  0.95562072  0.97519185    -0.80600
O1032       O  0.94300584  0.51025847  0.95044582    -0.80650
O1033       O  0.55080430  0.98127662  0.93889175    -0.80620
O1034       O  0.99064350  0.94037666  0.95155449    -0.80580
O1035       O  0.53359212  0.57267518  0.94999406    -0.80650
Co1036     Co  0.53457194  0.96392142  0.49709265     1.51530
Co1037     Co  0.96509383  0.53397039  0.00586959     1.51690
Co1038     Co  0.55650096  0.55087216  0.50017802     1.51570
Co1039     Co  0.96665386  0.97426518  0.99684831     1.51470
O1040       O  0.51419121  0.00967600  0.50906217    -1.42540
C1041       C  0.51422861  0.91395516  0.95232166     1.09010
C1042       C  0.00405024  0.59014566  0.94918243     1.09100
C1043       C  0.58096628  0.00147173  0.93457828     1.09040
C1044       C  0.91749615  0.48237540  0.94897246     1.09010
C1045       C  0.48366572  0.78862547  0.66094980     0.02660
C1046       C  0.48614345  0.75546747  0.63838086    -0.13490
C1047       C  0.49226481  0.72173549  0.65933079     0.00160
C1048       C  0.49535477  0.72142369  0.70340334    -0.12020
C1049       C  0.49136060  0.75414618  0.72715995     0.02650
C1050       C  0.48502493  0.78754564  0.70498332    -0.11440
H1051       H  0.48439534  0.75617791  0.60433647     0.08250
H1052       H  0.50210482  0.69555818  0.71841513     0.05770
H1053       H  0.48105763  0.81330115  0.72124793     0.05620
C1054       C  0.50587265  0.78732937  0.84083253     0.02660
C1055       C  0.50240619  0.75342045  0.86289401    -0.13490
C1056       C  0.49602100  0.71966004  0.84168657     0.00160
C1057       C  0.49121292  0.71982725  0.79789054    -0.12020
C1058       C  0.49489830  0.75381771  0.77445044     0.02650
C1059       C  0.50275141  0.78753429  0.79688797    -0.11440
H1060       H  0.50502202  0.75323419  0.89691924     0.08250
H1061       H  0.48501531  0.69319315  0.78282116     0.05770
H1062       H  0.50734316  0.81426476  0.78095019     0.05620
C1063       C  0.72213788  0.48739857  0.66001723     0.02660
C1064       C  0.75578681  0.49970922  0.64004824    -0.13490
C1065       C  0.78915239  0.50597532  0.66278805     0.00160
C1066       C  0.78831647  0.50220677  0.70686508    -0.12020
C1067       C  0.75479579  0.48893563  0.72785779     0.02650
C1068       C  0.72236660  0.47974815  0.70331725    -0.11440
H1069       H  0.75607885  0.50440109  0.60626763     0.08250
H1070       H  0.81373204  0.50995935  0.72425864     0.05770
H1071       H  0.69679969  0.46727350  0.71756759     0.05620
C1072       C  0.71524443  0.48661348  0.83952856     0.02660
C1073       C  0.71807408  0.48906022  0.79574083    -0.13490
C1074       C  0.75276964  0.48624621  0.77499188     0.00160
C1075       C  0.78513199  0.48187909  0.79975466    -0.12020
C1076       C  0.78322298  0.48153161  0.84408490     0.02650
C1077       C  0.74797903  0.48418488  0.86363305    -0.11440
H1078       H  0.69276982  0.49367286  0.77827392     0.08250
H1079       H  0.81199620  0.47852156  0.78486848     0.05770
H1080       H  0.74594498  0.48508966  0.89762115     0.05620
C1081       C  0.96858235  0.62810260  0.89886157    -0.09630
C1082       C  0.50230291  0.62221991  0.92005687     0.06570
C1083       C  0.53376977  0.64813978  0.91439742    -0.03390
C1084       C  0.53133772  0.67868238  0.88726824    -0.07840
C1085       C  0.49780199  0.68447690  0.86588810     0.05680
C1086       C  0.96622163  0.65886829  0.87160935    -0.02870
Br1087     Br  0.91884326  0.66612519  0.84521146    -0.02560
H1088       H  0.94393816  0.60904456  0.90391373     0.09600
H1089       H  0.55543964  0.69881394  0.88385608     0.07610
Br1090     Br  0.57938022  0.64604339  0.94645171    -0.02990
C1091       C  0.54243067  0.85985920  0.91918192    -0.09630
C1092       C  0.51294656  0.88411843  0.91987327     0.06570
C1093       C  0.98319687  0.87810956  0.89048960    -0.03390
C1094       C  0.98265076  0.84754882  0.86330661    -0.07840
C1095       C  0.51105195  0.82251984  0.86461684     0.05680
C1096       C  0.54165030  0.82937804  0.89207686    -0.02900
Br1097     Br  0.58310465  0.79790658  0.89377370    -0.02560
H1098       H  0.56613265  0.86404241  0.94037107     0.09600
H1099       H  0.95899738  0.84232847  0.84220207     0.07610
Br1100     Br  0.94130207  0.90862800  0.88599014    -0.02990
C1101       C  0.97393203  0.65398316  0.64583772    -0.09630
C1102       C  0.49635474  0.68679485  0.63525909     0.06570
C1103       C  0.52266162  0.68546697  0.60226756    -0.03390
C1104       C  0.52521957  0.65241544  0.57987304    -0.07840
C1105       C  0.50229297  0.61958908  0.58950381     0.05680
C1106       C  0.97665376  0.62058666  0.62347320    -0.02870
Br1107     Br  0.94562081  0.57753822  0.64228592    -0.02560
H1108       H  0.95395316  0.65441246  0.67156142     0.09600
H1109       H  0.54534010  0.65276319  0.55423296     0.07610
Br1110     Br  0.55752424  0.72711165  0.58741864    -0.02990
C1111       C  0.95751959  0.86653661  0.58687205    -0.09630
C1112       C  0.48869181  0.89293411  0.59112050     0.06570
C1113       C  0.51647313  0.88577912  0.62140764    -0.03390
C1114       C  0.51346958  0.85221520  0.64473541    -0.07840
C1115       C  0.48340673  0.82515966  0.63851314     0.05680
C1116       C  0.95484001  0.83294615  0.60994589    -0.02870
Br1117     Br  0.91145504  0.79878943  0.60144681    -0.02560
H1118       H  0.93557222  0.87125272  0.56425941     0.09600
H1119       H  0.53543526  0.84665215  0.66704043     0.07610
Br1120     Br  0.55940444  0.91990137  0.63267283    -0.02990
C1121       C  0.85335225  0.45704117  0.92907405    -0.09630
C1122       C  0.88509672  0.48133404  0.91915554     0.06570
C1123       C  0.88366654  0.00429342  0.88283020    -0.03390
C1124       C  0.85046061  0.00376520  0.85885102    -0.07840
C1125       C  0.81835188  0.48016078  0.86968560     0.05680
C1126       C  0.82061714  0.45595607  0.90482033    -0.02870
Br1127     Br  0.78128375  0.41887098  0.92054403    -0.02560
H1128       H  0.85368722  0.43864316  0.95634998     0.09600
H1129       H  0.84967907  0.02220215  0.83164937     0.07610
Br1130     Br  0.92625123  0.03540075  0.86277807    -0.02990
C1131       C  0.62636460  0.96074989  0.90324288    -0.09630
C1132       C  0.60882211  0.99457636  0.90184272     0.06570
C1133       C  0.62448780  0.52427328  0.87649088    -0.03390
C1134       C  0.65869556  0.52092380  0.85561480    -0.07840
C1135       C  0.67788957  0.48821585  0.85982722     0.05680
C1136       C  0.66069364  0.95739907  0.88246412    -0.02870
Br1137     Br  0.68287037  0.91025282  0.88589509    -0.02560
H1138       H  0.61460829  0.93770573  0.92267875     0.09600
H1139       H  0.67092711  0.54433199  0.83707604     0.07610
Br1140     Br  0.60021188  0.57005526  0.87002067    -0.02990
C1141       C  0.82478735  0.54355031  0.60781600    -0.09630
C1142       C  0.82437408  0.51522188  0.63883043     0.06570
C1143       C  0.85432558  0.99167552  0.64041485    -0.03390
C1144       C  0.88264975  0.99538966  0.60992486    -0.07840
C1145       C  0.88179186  0.52197495  0.57697196     0.05680
C1146       C  0.85277565  0.54697039  0.57680468    -0.02870
Br1147     Br  0.84729262  0.58454751  0.03408296    -0.02560
H1148       H  0.80181604  0.56179280  0.60626445     0.09600
H1149       H  0.90479909  0.97620718  0.61131904     0.07610
Br1150     Br  0.85613897  0.95113393  0.68030901    -0.02990
C1151       C  0.68742132  0.96724584  0.59535707    -0.09630
C1152       C  0.68697145  0.48446283  0.63492627     0.06570
C1153       C  0.65525101  0.50359952  0.64644918    -0.03390
C1154       C  0.62578892  0.50642533  0.61790742    -0.07840
C1155       C  0.62728962  0.49103274  0.57754870     0.05680
C1156       C  0.65833244  0.97081890  0.56647730    -0.02870
Br1157     Br  0.66501428  0.95089770  0.01127501    -0.02560
H1158       H  0.71164624  0.95265677  0.58592571     0.09600
H1159       H  0.60199325  0.52185358  0.62688842     0.07610
Br1160     Br  0.65179168  0.53012597  0.69844242    -0.02990
loop_ 
_geom_bond_atom_site_label_1 
_geom_bond_atom_site_label_2 
_geom_bond_distance 
_geom_bond_site_symmetry_2 
_ccdc_geom_bond_type 
O1          Co21   2.001   1_554  S
O1          C299   1.277       .  A
O2         Co167   1.905       .  S
O2           C10   1.269       .  A
O3          Co23   1.979       .  S
O3           C11   1.264       .  A
O4         Co169   1.981   1_554  S
O4          C592   1.255       .  A
O5         Co167   2.006       .  S
O5          C591   1.264       .  A
O6          Co21   1.987   1_554  S
O6           C12   1.255   1_455  A
O7         Co169   2.084   1_554  S
O7          C300   1.294       .  A
O8          Co23   1.975       .  S
O8            C9   1.274   1_545  A
C9          O291   1.277       .  A
C9          C140   1.474       .  S
C10         O297   1.294   1_545  A
C10         C130   1.485       .  S
C11         O585   1.264   1_455  A
C11          C90   1.494       .  S
C12         O584   1.255       .  A
C12          C97   1.490       .  S
O13        Co166   1.871       .  S
O13          C26   1.277       .  A
O14         Co22   1.989       .  S
O14          C27   1.265       .  A
O15        Co168   1.975       .  S
O15         C318   1.252       .  A
O16         Co24   1.888       .  S
O16         C319   1.269       .  A
O17         Co22   2.092       .  S
O17          C29   1.299   1_545  A
O18        Co166   2.015       .  S
O18          C28   1.255       .  A
O19         Co24   2.111       .  S
O19         C606   1.310       .  A
O20        Co168   1.973       .  S
O20         C607   1.262       .  A
Co21        O158   1.871       .  S
Co21        O163   2.015       .  S
Co21         O25   1.881   1_556  S
Co22        O147   1.905       .  S
Co22        O150   2.006       .  S
Co22       O1040   2.011       .  S
Co23        O160   1.975   1_554  S
Co23        O165   1.973   1_554  S
Co23        O315   2.045       .  S
Co24        O149   1.981       .  S
Co24        O152   2.084       .  S
Co24        O750   2.076       .  S
O25       Co1037   2.011   1_455  S
O25        Co313   2.045       .  S
O25        Co749   2.076   1_454  S
C26         O599   1.310   1_455  A
C26          C77   1.490       .  S
C27         O600   1.262       .  A
C27         C647   1.471       .  S
C28         O305   1.252       .  A
C28         C117   1.471       .  S
C29         O306   1.269       .  A
C29         C107   1.492       .  S
C30         C100   1.483       .  S
C30          C31   1.401       .  A
C30          C35   1.400       .  A
C31          C32   1.403       .  A
C31          H36   1.084       .  S
C32          C87   1.488       .  S
C32          C33   1.405       .  A
C33          C34   1.415       .  A
C33          H37   1.079   1_655  S
C34          C43   1.508       .  S
C34          C35   1.413       .  A
C35          H38   1.079       .  S
C39          C80   1.475       .  S
C39          C40   1.392       .  A
C39          C44   1.401       .  A
C40          C41   1.393   1_455  A
C40          H45   1.085       .  S
C41          C70   1.473       .  S
C41          C42   1.402       .  A
C42          C43   1.417       .  A
C42          H46   1.079       .  S
C43          C44   1.418   1_655  A
C44          H47   1.079       .  S
C48         C137   1.482       .  S
C48          C49   1.394       .  A
C48          C53   1.400       .  A
C49          C50   1.396   1_565  A
C49          H54   1.085   1_565  S
C50         C127   1.480       .  S
C50          C51   1.406       .  A
C51          C52   1.415   1_545  A
C51          H55   1.081       .  S
C52          C59   1.501       .  S
C52          C53   1.414       .  A
C53          H56   1.080       .  S
C57         C120   1.482       .  S
C57          C58   1.396       .  A
C57          C62   1.403       .  A
C58          C59   1.410       .  A
C58          H63   1.081       .  S
C59          C60   1.413       .  A
C60          C61   1.410       .  A
C60          H64   1.081       .  S
C61         C110   1.496       .  S
C61          C62   1.409       .  A
C62          H65   1.083       .  S
C66          C71   1.401       .  A
C66         C647   1.405       .  A
C66          H73   1.081       .  S
C67         C607   1.471       .  S
C67          C68   1.410       .  A
C67         C646   1.405   1_455  A
C68          C69   1.392       .  A
C68         Br75   1.923       .  S
C69          C70   1.402   1_455  A
C69          H74   1.083       .  S
C70         C651   1.407       .  A
C71         C650   1.407       .  A
C71         Br72   1.918       .  S
C76          C77   1.410       .  A
C76          C81   1.395       .  A
C76          H83   1.083       .  S
C77         C658   1.418   1_455  A
C78          C79   1.399       .  A
C78         C657   1.418       .  A
C78         Br85   1.916       .  S
C79         C660   1.399       .  A
C79          H84   1.084       .  S
C80          C81   1.405       .  A
C80         C659   1.399   1_455  A
C81         Br82   1.921       .  S
C86          C91   1.406       .  A
C86         C667   1.407       .  A
C86          H93   1.084       .  S
C87          C88   1.408   1_655  A
C87         C666   1.407       .  A
C88          C89   1.395       .  A
C88         Br95   1.921       .  S
C89          C90   1.410       .  A
C89          H94   1.083       .  S
C90         C671   1.415   1_455  A
C91         C670   1.415       .  A
C91         Br92   1.917       .  S
C96         C101   1.398       .  A
C96         C677   1.410       .  A
C96         H103   1.083       .  S
C97          C98   1.416   1_655  A
C97         C676   1.410       .  A
C98          C99   1.402       .  A
C98        Br105   1.920       .  S
C99         C100   1.404   1_455  A
C99         H104   1.084       .  S
C100        C681   1.405       .  A
C101        C680   1.405       .  A
C101       Br102   1.918       .  S
C106        C107   1.407       .  A
C106        C111   1.396       .  A
C106        H113   1.083       .  S
C107        C398   1.413   1_565  A
C108        C109   1.406       .  A
C108        C397   1.413       .  A
C108       Br115   1.917       .  S
C109        C400   1.410       .  A
C109        H114   1.083       .  S
C110        C111   1.412       .  A
C110        C399   1.410   1_565  A
C111       Br112   1.918       .  S
C116        C117   1.402       .  A
C116        C121   1.401       .  A
C116        H123   1.083       .  S
C117        C408   1.408       .  A
C118        C119   1.399       .  A
C118        C407   1.408   1_545  A
C118       Br125   1.916       .  S
C119        C120   1.403   1_545  A
C119        H124   1.083       .  S
C120        C411   1.411       .  A
C121        C410   1.411       .  A
C121       Br122   1.916       .  S
C126        C127   1.405       .  A
C126        C131   1.398       .  A
C126        H133   1.084       .  S
C127        C418   1.407   1_545  A
C128        C129   1.395       .  A
C128        C417   1.407       .  A
C128       Br135   1.921       .  S
C129        C420   1.409       .  A
C129        H134   1.083       .  S
C130        C131   1.415       .  A
C130        C419   1.409   1_545  A
C131       Br277   1.922       .  S
Br132       C276   1.922       .  S
C136        C141   1.396       .  A
C136        C427   1.406       .  A
C136        H143   1.084       .  S
C137        C138   1.412   1_565  A
C137        C426   1.406       .  A
C138        C139   1.396       .  A
C138       Br145   1.922       .  S
C139        C140   1.403   1_545  A
C139        H144   1.084       .  S
C140        C431   1.411       .  A
C141        C430   1.411       .  A
C141       Br287   1.922       .  S
Br142       C286   1.922       .  S
O146       Co166   2.002       .  S
O146        C444   1.277       .  A
O147        C155   1.269       .  A
O148       Co168   1.979       .  S
O148        C156   1.264       .  A
O149        C737   1.255       .  A
O150        C736   1.264       .  A
O151       Co166   1.987       .  S
O151        C157   1.255   1_455  A
O152        C445   1.294       .  A
O153       Co168   1.975       .  S
O153        C154   1.274   1_545  A
C154        O436   1.277       .  A
C154        C285   1.474       .  S
C155        O442   1.294   1_545  A
C155        C275   1.485       .  S
C156        O730   1.264   1_455  A
C156        C235   1.494       .  S
C157        O729   1.255       .  A
C157        C242   1.490       .  S
O158        C171   1.277       .  A
O159       Co167   1.989   1_556  S
O159        C172   1.265       .  A
O160        C463   1.252       .  A
O161       Co169   1.888       .  S
O161        C464   1.269       .  A
O162       Co167   2.092   1_556  S
O162        C174   1.299   1_545  A
O163        C173   1.255       .  A
O164       Co169   2.111       .  S
O164        C751   1.310       .  A
O165        C752   1.262       .  A
Co166       O170   1.881       .  S
Co167       O895   2.011       .  S
Co168       O460   2.045       .  S
Co169       O605   2.076   1_556  S
O170       Co892   2.011   1_455  S
O170       Co458   2.045       .  S
O170       Co604   2.076   1_455  S
C171        O744   1.310   1_455  A
C171        C222   1.490       .  S
C172        O745   1.262       .  A
C172        C792   1.471       .  S
C173        O450   1.252       .  A
C173        C262   1.471       .  S
C174        O451   1.269       .  A
C174        C252   1.492       .  S
C175        C245   1.483       .  S
C175        C176   1.401       .  A
C175        C180   1.400       .  A
C176        C177   1.403       .  A
C176        H181   1.084       .  S
C177        C232   1.488       .  S
C177        C178   1.405       .  A
C178        C179   1.415       .  A
C178        H182   1.079   1_655  S
C179        C188   1.508       .  S
C179        C180   1.413       .  A
C180        H183   1.079       .  S
C184        C225   1.475       .  S
C184        C185   1.392       .  A
C184        C189   1.401       .  A
C185        C186   1.393   1_455  A
C185        H190   1.085       .  S
C186        C215   1.473       .  S
C186        C187   1.402       .  A
C187        C188   1.417       .  A
C187        H191   1.079       .  S
C188        C189   1.418   1_655  A
C189        H192   1.079       .  S
C193        C282   1.483       .  S
C193        C194   1.395       .  A
C193        C198   1.400       .  A
C194        C195   1.396   1_565  A
C194        H199   1.085   1_565  S
C195        C272   1.480       .  S
C195        C196   1.406       .  A
C196        C197   1.415   1_545  A
C196        H200   1.081       .  S
C197        C204   1.501       .  S
C197        C198   1.414       .  A
C198        H201   1.080       .  S
C202        C265   1.482       .  S
C202        C203   1.396       .  A
C202        C207   1.403       .  A
C203        C204   1.410       .  A
C203        H208   1.081       .  S
C204        C205   1.413       .  A
C205        C206   1.410       .  A
C205        H209   1.081       .  S
C206        C255   1.496       .  S
C206        C207   1.409       .  A
C207        H210   1.083       .  S
C211        C792   1.405       .  A
C211        C216   1.401       .  A
C211        H218   1.081       .  S
C212        C752   1.471       .  S
C212        C791   1.405   1_455  A
C212        C213   1.410       .  A
C213        C214   1.392       .  A
C213       Br220   1.923       .  S
C214        C215   1.402   1_455  A
C214        H219   1.083       .  S
C215        C796   1.407       .  A
C216        C795   1.407       .  A
C216       Br217   1.918       .  S
C221        C222   1.410       .  A
C221        C226   1.395       .  A
C221        H228   1.083       .  S
C222        C803   1.418   1_455  A
C223        C802   1.418       .  A
C223        C224   1.399       .  A
C223       Br230   1.916       .  S
C224        C805   1.399       .  A
C224        H229   1.084       .  S
C225        C804   1.399   1_455  A
C225        C226   1.405       .  A
C226       Br227   1.921       .  S
C231        C812   1.407       .  A
C231        C236   1.406       .  A
C231        H238   1.084       .  S
C232        C811   1.407       .  A
C232        C233   1.408   1_655  A
C233        C234   1.395       .  A
C233       Br240   1.921       .  S
C234        C235   1.410       .  A
C234        H239   1.083       .  S
C235        C816   1.415   1_455  A
C236        C815   1.415       .  A
C236       Br237   1.917       .  S
C241        C822   1.410       .  A
C241        C246   1.398       .  A
C241        H248   1.083       .  S
C242        C821   1.410       .  A
C242        C243   1.416   1_655  A
C243        C244   1.402       .  A
C243       Br250   1.920       .  S
C244        C245   1.404   1_455  A
C244        H249   1.084       .  S
C245        C826   1.405       .  A
C246        C825   1.405       .  A
C246       Br247   1.918       .  S
C251        C252   1.407       .  A
C251        C256   1.396       .  A
C251        H258   1.083       .  S
C252        C543   1.413   1_565  A
C253        C542   1.413       .  A
C253        C254   1.406       .  A
C253       Br260   1.917       .  S
C254        C545   1.410       .  A
C254        H259   1.083       .  S
C255        C544   1.410   1_565  A
C255        C256   1.412       .  A
C256       Br257   1.918       .  S
C261        C262   1.402       .  A
C261        C266   1.401       .  A
C261        H268   1.083       .  S
C262        C553   1.408       .  A
C263        C552   1.408   1_545  A
C263        C264   1.399       .  A
C263       Br270   1.916       .  S
C264        C265   1.403   1_545  A
C264        H269   1.083       .  S
C265        C556   1.411       .  A
C266        C555   1.411       .  A
C266       Br267   1.916       .  S
C271        C272   1.405       .  A
C271        C276   1.398       .  A
C271        H278   1.084       .  S
C272        C563   1.407   1_545  A
C273        C562   1.407       .  A
C273        C274   1.395       .  A
C273       Br280   1.921       .  S
C274        C565   1.409       .  A
C274        H279   1.083       .  S
C275        C564   1.409   1_545  A
C275        C276   1.415       .  A
C281        C572   1.406       .  A
C281        C286   1.396       .  A
C281        H288   1.084       .  S
C282        C571   1.406       .  A
C282        C283   1.413   1_565  A
C283        C284   1.396       .  A
C283       Br290   1.922       .  S
C284        C285   1.403   1_545  A
C284        H289   1.084       .  S
C285        C576   1.410       .  A
C286        C575   1.410       .  A
O291       Co311   2.001   1_554  S
O292       Co457   1.905       .  S
O292        C300   1.269       .  A
O293       Co313   1.979       .  S
O293        C301   1.264       .  A
O294       Co459   1.981   1_554  S
O294        C882   1.255       .  A
O295       Co457   2.006       .  S
O295        C881   1.264       .  A
O296       Co311   1.987   1_554  S
O296        C302   1.255   1_455  A
O297       Co459   2.084   1_554  S
O298       Co313   1.975       .  S
O298        C299   1.274       .  A
C299        C430   1.474       .  S
C300        C420   1.485       .  S
C301        O875   1.264   1_455  A
C301        C380   1.494       .  S
C302        O874   1.255       .  A
C302        C387   1.490       .  S
O303       Co456   1.871       .  S
O303        C316   1.277       .  A
O304       Co312   1.989       .  S
O304        C317   1.265       .  A
O305       Co458   1.975       .  S
O306       Co314   1.888       .  S
O307       Co312   2.092       .  S
O307        C319   1.299       .  A
O308       Co456   2.015       .  S
O308        C318   1.255   1_565  A
O309       Co314   2.111       .  S
O309        C896   1.310       .  A
O310       Co458   1.973       .  S
O310        C897   1.262       .  A
Co311       O448   1.871       .  S
Co311       O453   2.015       .  S
Co311       O315   1.881   1_566  S
Co312       O437   1.905       .  S
Co312       O440   2.006       .  S
Co312       O750   2.011       .  S
Co313       O450   1.975   1_554  S
Co313       O455   1.973   1_554  S
Co314       O439   1.981       .  S
Co314       O442   2.084       .  S
Co314      O1040   2.076   1_565  S
O315       Co747   2.011   1_455  S
O315      Co1039   2.076   1_444  S
C316        O889   1.310   1_455  A
C316        C367   1.490       .  S
C317        O890   1.262       .  A
C317        C937   1.471       .  S
C318        C407   1.471   1_545  S
C319        C397   1.492       .  S
C320        C390   1.483       .  S
C320        C321   1.401       .  A
C320        C325   1.400       .  A
C321        C322   1.403       .  A
C321        H326   1.084       .  S
C322        C377   1.488       .  S
C322        C323   1.405       .  A
C323        C324   1.415       .  A
C323        H327   1.079   1_655  S
C324        C333   1.508       .  S
C324        C325   1.413       .  A
C325        H328   1.079       .  S
C329        C370   1.475       .  S
C329        C330   1.392       .  A
C329        C334   1.401       .  A
C330        C331   1.393   1_455  A
C330        H335   1.085       .  S
C331        C360   1.473       .  S
C331        C332   1.402       .  A
C332        C333   1.417       .  A
C332        H336   1.079       .  S
C333        C334   1.418   1_655  A
C334        H337   1.079       .  S
C338        C427   1.482       .  S
C338        C339   1.394       .  A
C338        C343   1.400       .  A
C339        C340   1.396       .  A
C339        H344   1.085       .  S
C340        C417   1.480       .  S
C340        C341   1.406       .  A
C341        C342   1.415       .  A
C341        H345   1.081       .  S
C342        C349   1.501       .  S
C342        C343   1.414       .  A
C343        H346   1.080       .  S
C347        C410   1.482       .  S
C347        C348   1.396       .  A
C347        C352   1.403       .  A
C348        C349   1.410       .  A
C348        H353   1.081       .  S
C349        C350   1.413       .  A
C350        C351   1.410       .  A
C350        H354   1.081       .  S
C351        C400   1.496       .  S
C351        C352   1.409       .  A
C352        H355   1.083       .  S
C356        C937   1.405       .  A
C356        C361   1.401       .  A
C356        H363   1.081       .  S
C357        C897   1.471       .  S
C357        C936   1.405   1_455  A
C357        C358   1.410       .  A
C358        C359   1.392       .  A
C358       Br365   1.923       .  S
C359        C360   1.402   1_455  A
C359        H364   1.083       .  S
C360        C941   1.407       .  A
C361        C940   1.407       .  A
C361       Br362   1.918       .  S
C366        C367   1.410       .  A
C366        C371   1.395       .  A
C366        H373   1.083       .  S
C367        C948   1.418   1_455  A
C368        C947   1.418       .  A
C368        C369   1.399       .  A
C368       Br375   1.916       .  S
C369        C950   1.399       .  A
C369        H374   1.084       .  S
C370        C949   1.399   1_455  A
C370        C371   1.405       .  A
C371       Br372   1.921       .  S
C376        C957   1.407       .  A
C376        C381   1.406       .  A
C376        H383   1.084       .  S
C377        C956   1.407       .  A
C377        C378   1.408   1_655  A
C378        C379   1.395       .  A
C378       Br385   1.921       .  S
C379        C380   1.410       .  A
C379        H384   1.083       .  S
C380        C961   1.415   1_455  A
C381        C960   1.415       .  A
C381       Br382   1.917       .  S
C386        C967   1.410       .  A
C386        C391   1.398       .  A
C386        H393   1.083       .  S
C387        C966   1.410       .  A
C387        C388   1.416   1_655  A
C388        C389   1.402       .  A
C388       Br395   1.920       .  S
C389        C390   1.404   1_455  A
C389        H394   1.084       .  S
C390        C971   1.405       .  A
C391        C970   1.405       .  A
C391       Br392   1.918       .  S
C396        C397   1.407       .  A
C396        C401   1.396       .  A
C396        H403   1.083       .  S
C398        C399   1.406       .  A
C398       Br405   1.917       .  S
C399        H404   1.083       .  S
C400        C401   1.412       .  A
C401       Br402   1.918       .  S
C406        C407   1.402       .  A
C406        C411   1.401       .  A
C406        H413   1.083       .  S
C408        C409   1.399       .  A
C408       Br415   1.916       .  S
C409        C410   1.403       .  A
C409        H414   1.083       .  S
C411       Br412   1.916       .  S
C416        C417   1.405       .  A
C416        C421   1.398       .  A
C416        H423   1.084       .  S
C418        C419   1.395       .  A
C418       Br425   1.921       .  S
C419        H424   1.083       .  S
C420        C421   1.415       .  A
C421       Br567   1.922       .  S
Br422       C566   1.922       .  S
C426        C431   1.396       .  A
C426        H433   1.084       .  S
C427        C428   1.412       .  A
C428        C429   1.396       .  A
C428       Br435   1.922       .  S
C429        C430   1.403       .  A
C429        H434   1.084       .  S
C431       Br577   1.922       .  S
Br432       C576   1.922       .  S
O436       Co456   2.002       .  S
O437        C445   1.269       .  A
O438       Co458   1.979       .  S
O438        C446   1.264       .  A
O439       C1027   1.255       .  A
O440       C1026   1.264       .  A
O441       Co456   1.987       .  S
O441        C447   1.255   1_455  A
O443       Co458   1.975       .  S
O443        C444   1.274       .  A
C444        C575   1.474       .  S
C445        C565   1.485       .  S
C446       O1020   1.264   1_455  A
C446        C525   1.494       .  S
C447       O1019   1.255       .  A
C447        C532   1.490       .  S
O448        C461   1.277       .  A
O449       Co457   1.989   1_556  S
O449        C462   1.265       .  A
O451       Co459   1.888       .  S
O452       Co457   2.092   1_556  S
O452        C464   1.299       .  A
O453        C463   1.255   1_565  A
O454       Co459   2.111       .  S
O454       C1041   1.310       .  A
O455       C1042   1.262       .  A
Co456       O460   1.881   1_565  S
Co457       O605   2.011       .  S
Co459       O895   2.076   1_566  S
O460       Co602   2.011   1_455  S
O460       Co894   2.076   1_445  S
C461       O1034   1.310   1_455  A
C461        C512   1.490       .  S
C462       O1035   1.262       .  A
C462       C1082   1.471       .  S
C463        C552   1.471   1_545  S
C464        C542   1.492       .  S
C465        C535   1.483       .  S
C465        C466   1.401       .  A
C465        C470   1.400       .  A
C466        C467   1.403       .  A
C466        H471   1.084       .  S
C467        C522   1.488       .  S
C467        C468   1.405       .  A
C468        C469   1.415       .  A
C468        H472   1.079   1_655  S
C469        C478   1.508       .  S
C469        C470   1.413       .  A
C470        H473   1.079       .  S
C474        C515   1.475       .  S
C474        C475   1.392       .  A
C474        C479   1.401       .  A
C475        C476   1.393   1_455  A
C475        H480   1.085       .  S
C476        C505   1.473       .  S
C476        C477   1.402       .  A
C477        C478   1.417       .  A
C477        H481   1.079       .  S
C478        C479   1.418   1_655  A
C479        H482   1.079       .  S
C483        C572   1.483       .  S
C483        C484   1.395       .  A
C483        C488   1.400       .  A
C484        C485   1.396       .  A
C484        H489   1.085       .  S
C485        C562   1.480       .  S
C485        C486   1.406       .  A
C486        C487   1.415       .  A
C486        H490   1.081       .  S
C487        C494   1.501       .  S
C487        C488   1.414       .  A
C488        H491   1.080       .  S
C492        C555   1.482       .  S
C492        C493   1.396       .  A
C492        C497   1.403       .  A
C493        C494   1.410       .  A
C493        H498   1.081       .  S
C494        C495   1.413       .  A
C495        C496   1.410       .  A
C495        H499   1.081       .  S
C496        C545   1.496       .  S
C496        C497   1.409       .  A
C497        H500   1.083       .  S
C501       C1082   1.405       .  A
C501        C506   1.401       .  A
C501        H508   1.081       .  S
C502       C1042   1.471       .  S
C502       C1081   1.405   1_455  A
C502        C503   1.410       .  A
C503        C504   1.392       .  A
C503       Br510   1.923       .  S
C504        C505   1.402   1_455  A
C504        H509   1.083       .  S
C505       C1086   1.407       .  A
C506       C1085   1.407       .  A
C506       Br507   1.918       .  S
C511        C512   1.410       .  A
C511        C516   1.395       .  A
C511        H518   1.083       .  S
C512       C1093   1.418   1_455  A
C513       C1092   1.418       .  A
C513        C514   1.399       .  A
C513       Br520   1.916       .  S
C514       C1095   1.399       .  A
C514        H519   1.084       .  S
C515       C1094   1.399   1_455  A
C515        C516   1.405       .  A
C516       Br517   1.921       .  S
C521       C1102   1.407       .  A
C521        C526   1.406       .  A
C521        H528   1.084       .  S
C522       C1101   1.407       .  A
C522        C523   1.408   1_655  A
C523        C524   1.395       .  A
C523       Br530   1.921       .  S
C524        C525   1.410       .  A
C524        H529   1.083       .  S
C525       C1106   1.415   1_455  A
C526       C1105   1.415       .  A
C526       Br527   1.917       .  S
C531       C1112   1.410       .  A
C531        C536   1.398       .  A
C531        H538   1.083       .  S
C532       C1111   1.410       .  A
C532        C533   1.416   1_655  A
C533        C534   1.402       .  A
C533       Br540   1.920       .  S
C534        C535   1.404   1_455  A
C534        H539   1.084       .  S
C535       C1116   1.405       .  A
C536       C1115   1.405       .  A
C536       Br537   1.918       .  S
C541        C542   1.407       .  A
C541        C546   1.396       .  A
C541        H548   1.083       .  S
C543        C544   1.406       .  A
C543       Br550   1.917       .  S
C544        H549   1.083       .  S
C545        C546   1.412       .  A
C546       Br547   1.918       .  S
C551        C552   1.402       .  A
C551        C556   1.401       .  A
C551        H558   1.083       .  S
C553        C554   1.399       .  A
C553       Br560   1.916       .  S
C554        C555   1.403       .  A
C554        H559   1.083       .  S
C556       Br557   1.916       .  S
C561        C562   1.405       .  A
C561        C566   1.398       .  A
C561        H568   1.084       .  S
C563        C564   1.395       .  A
C563       Br570   1.921       .  S
C564        H569   1.083       .  S
C565        C566   1.415       .  A
C571        C576   1.396       .  A
C571        H578   1.084       .  S
C572        C573   1.413       .  A
C573        C574   1.396       .  A
C573       Br580   1.922       .  S
C574        C575   1.403       .  A
C574        H579   1.084       .  S
O581       Co601   2.001   1_554  S
O581        C879   1.277       .  A
O582       Co747   1.905       .  S
O582        C590   1.269       .  A
O583       Co603   1.979       .  S
O583        C591   1.264       .  A
O584       Co749   1.981   1_554  S
O585       Co747   2.006       .  S
O586       Co601   1.987   1_554  S
O586        C592   1.255       .  A
O587       Co749   2.084   1_554  S
O587        C880   1.294       .  A
O588       Co603   1.975       .  S
O588        C589   1.274   1_545  A
C589        O871   1.277       .  A
C589        C720   1.474       .  S
C590        O877   1.294   1_545  A
C590        C710   1.485       .  S
C591        C670   1.494       .  S
C592        C677   1.490       .  S
O593       Co746   1.871       .  S
O593        C606   1.277       .  A
O594       Co602   1.989       .  S
O594        C607   1.265   1_655  A
O595       Co748   1.975       .  S
O595        C898   1.252       .  A
O596       Co604   1.888       .  S
O596        C899   1.269       .  A
O597       Co602   2.092       .  S
O597        C609   1.299   1_545  A
O598       Co746   2.015       .  S
O598        C608   1.255       .  A
O599       Co604   2.111       .  S
O600       Co748   1.973       .  S
Co601       O738   1.871       .  S
Co601       O743   2.015       .  S
Co601       O605   1.881   1_556  S
Co602       O727   1.905       .  S
Co602       O730   2.006       .  S
Co603       O740   1.975   1_554  S
Co603       O745   1.973   1_554  S
Co603       O895   2.045       .  S
Co604       O729   1.981       .  S
Co604       O732   2.084       .  S
O605       Co893   2.045       .  S
C606        C657   1.490       .  S
C608        O885   1.252       .  A
C608        C697   1.471       .  S
C609        O886   1.269       .  A
C609        C687   1.492       .  S
C610        C680   1.483       .  S
C610        C611   1.401       .  A
C610        C615   1.400       .  A
C611        C612   1.403       .  A
C611        H616   1.084       .  S
C612        C667   1.488       .  S
C612        C613   1.405       .  A
C613        C614   1.415       .  A
C613        H617   1.079       .  S
C614        C623   1.508       .  S
C614        C615   1.413       .  A
C615        H618   1.079       .  S
C619        C660   1.475       .  S
C619        C620   1.392       .  A
C619        C624   1.401       .  A
C620        C621   1.393       .  A
C620        H625   1.085       .  S
C621        C650   1.473       .  S
C621        C622   1.402       .  A
C622        C623   1.417       .  A
C622        H626   1.079       .  S
C623        C624   1.418       .  A
C624        H627   1.079       .  S
C628        C717   1.482       .  S
C628        C629   1.394       .  A
C628        C633   1.400       .  A
C629        C630   1.396   1_565  A
C629        H634   1.085   1_565  S
C630        C707   1.480       .  S
C630        C631   1.406       .  A
C631        C632   1.415   1_545  A
C631        H635   1.081       .  S
C632        C639   1.501       .  S
C632        C633   1.414       .  A
C633        H636   1.080       .  S
C637        C700   1.482       .  S
C637        C638   1.396       .  A
C637        C642   1.403       .  A
C638        C639   1.410       .  A
C638        H643   1.081       .  S
C639        C640   1.413       .  A
C640        C641   1.410       .  A
C640        H644   1.081       .  S
C641        C690   1.496       .  S
C641        C642   1.409       .  A
C642        H645   1.083       .  S
C646        C651   1.401       .  A
C646        H653   1.081       .  S
C647        C648   1.410       .  A
C648        C649   1.392       .  A
C648       Br655   1.923       .  S
C649        C650   1.402       .  A
C649        H654   1.083       .  S
C651       Br652   1.918       .  S
C656        C657   1.410       .  A
C656        C661   1.395       .  A
C656        H663   1.083       .  S
C658        C659   1.399       .  A
C658       Br665   1.916       .  S
C659        H664   1.084       .  S
C660        C661   1.405       .  A
C661       Br662   1.921       .  S
C666        C671   1.406       .  A
C666        H673   1.084       .  S
C667        C668   1.408       .  A
C668        C669   1.395       .  A
C668       Br675   1.921       .  S
C669        C670   1.410       .  A
C669        H674   1.083       .  S
C671       Br672   1.917       .  S
C676        C681   1.398       .  A
C676        H683   1.083       .  S
C677        C678   1.416       .  A
C678        C679   1.402       .  A
C678       Br685   1.920       .  S
C679        C680   1.404       .  A
C679        H684   1.084       .  S
C681       Br682   1.918       .  S
C686        C687   1.407       .  A
C686        C691   1.396       .  A
C686        H693   1.083       .  S
C687        C978   1.413   1_565  A
C688        C977   1.413       .  A
C688        C689   1.406       .  A
C688       Br695   1.917       .  S
C689        C980   1.410       .  A
C689        H694   1.083       .  S
C690        C979   1.410   1_565  A
C690        C691   1.412       .  A
C691       Br692   1.918       .  S
C696        C697   1.402       .  A
C696        C701   1.401       .  A
C696        H703   1.083       .  S
C697        C988   1.408       .  A
C698        C987   1.408   1_545  A
C698        C699   1.399       .  A
C698       Br705   1.916       .  S
C699        C700   1.403   1_545  A
C699        H704   1.083       .  S
C700        C991   1.411       .  A
C701        C990   1.411       .  A
C701       Br702   1.916       .  S
C706        C707   1.405       .  A
C706        C711   1.398       .  A
C706        H713   1.084       .  S
C707        C998   1.407   1_545  A
C708        C997   1.407       .  A
C708        C709   1.395       .  A
C708       Br715   1.921       .  S
C709       C1000   1.409       .  A
C709        H714   1.083       .  S
C710        C999   1.409   1_545  A
C710        C711   1.415       .  A
C711       Br857   1.922       .  S
Br712       C856   1.922       .  S
C716       C1007   1.406       .  A
C716        C721   1.396       .  A
C716        H723   1.084       .  S
C717       C1006   1.406       .  A
C717        C718   1.412   1_565  A
C718        C719   1.396       .  A
C718       Br725   1.922       .  S
C719        C720   1.403   1_545  A
C719        H724   1.084       .  S
C720       C1011   1.411       .  A
C721       C1010   1.411       .  A
C721       Br867   1.922       .  S
Br722       C866   1.922       .  S
O726       Co746   2.002       .  S
O726       C1024   1.277       .  A
O727        C735   1.269       .  A
O728       Co748   1.979       .  S
O728        C736   1.264       .  A
O731       Co746   1.987       .  S
O731        C737   1.255       .  A
O732       C1025   1.294       .  A
O733       Co748   1.975       .  S
O733        C734   1.274   1_545  A
C734       O1016   1.277       .  A
C734        C865   1.474       .  S
C735       O1022   1.294   1_545  A
C735        C855   1.485       .  S
C736        C815   1.494       .  S
C737        C822   1.490       .  S
O738        C751   1.277       .  A
O739       Co747   1.989   1_556  S
O739        C752   1.265   1_655  A
O740       C1043   1.252       .  A
O741       Co749   1.888       .  S
O741       C1044   1.269       .  A
O742       Co747   2.092   1_556  S
O742        C754   1.299   1_545  A
O743        C753   1.255       .  A
O744       Co749   2.111       .  S
Co746       O750   1.881       .  S
Co748      O1040   2.045       .  S
O750      Co1038   2.045       .  S
C751        C802   1.490       .  S
C753       O1030   1.252       .  A
C753        C842   1.471       .  S
C754       O1031   1.269       .  A
C754        C832   1.492       .  S
C755        C825   1.483       .  S
C755        C756   1.401       .  A
C755        C760   1.400       .  A
C756        C757   1.403       .  A
C756        H761   1.084       .  S
C757        C812   1.488       .  S
C757        C758   1.405       .  A
C758        C759   1.415       .  A
C758        H762   1.079       .  S
C759        C768   1.508       .  S
C759        C760   1.413       .  A
C760        H763   1.079       .  S
C764        C805   1.475       .  S
C764        C765   1.392       .  A
C764        C769   1.401       .  A
C765        C766   1.393       .  A
C765        H770   1.085       .  S
C766        C795   1.473       .  S
C766        C767   1.402       .  A
C767        C768   1.417       .  A
C767        H771   1.079       .  S
C768        C769   1.418       .  A
C769        H772   1.079       .  S
C773        C862   1.483       .  S
C773        C774   1.395       .  A
C773        C778   1.400       .  A
C774        C775   1.396   1_565  A
C774        H779   1.085   1_565  S
C775        C852   1.480       .  S
C775        C776   1.406       .  A
C776        C777   1.415   1_545  A
C776        H780   1.081       .  S
C777        C784   1.501       .  S
C777        C778   1.414       .  A
C778        H781   1.080       .  S
C782        C845   1.482       .  S
C782        C783   1.396       .  A
C782        C787   1.403       .  A
C783        C784   1.410       .  A
C783        H788   1.081       .  S
C784        C785   1.413       .  A
C785        C786   1.410       .  A
C785        H789   1.081       .  S
C786        C835   1.496       .  S
C786        C787   1.409       .  A
C787        H790   1.083       .  S
C791        C796   1.401       .  A
C791        H798   1.081       .  S
C792        C793   1.410       .  A
C793        C794   1.392       .  A
C793       Br800   1.923       .  S
C794        C795   1.402       .  A
C794        H799   1.083       .  S
C796       Br797   1.918       .  S
C801        C802   1.410       .  A
C801        C806   1.395       .  A
C801        H808   1.083       .  S
C803        C804   1.399       .  A
C803       Br810   1.916       .  S
C804        H809   1.084       .  S
C805        C806   1.405       .  A
C806       Br807   1.921       .  S
C811        C816   1.406       .  A
C811        H818   1.084       .  S
C812        C813   1.408       .  A
C813        C814   1.395       .  A
C813       Br820   1.921       .  S
C814        C815   1.410       .  A
C814        H819   1.083       .  S
C816       Br817   1.917       .  S
C821        C826   1.398       .  A
C821        H828   1.083       .  S
C822        C823   1.416       .  A
C823        C824   1.402       .  A
C823       Br830   1.920       .  S
C824        C825   1.404       .  A
C824        H829   1.084       .  S
C826       Br827   1.918       .  S
C831        C832   1.407       .  A
C831        C836   1.396       .  A
C831        H838   1.083       .  S
C832       C1123   1.413   1_565  A
C833       C1122   1.413       .  A
C833        C834   1.406       .  A
C833       Br840   1.917       .  S
C834       C1125   1.410       .  A
C834        H839   1.083       .  S
C835       C1124   1.410   1_565  A
C835        C836   1.412       .  A
C836       Br837   1.918       .  S
C841        C842   1.402       .  A
C841        C846   1.401       .  A
C841        H848   1.083       .  S
C842       C1133   1.408       .  A
C843       C1132   1.408   1_545  A
C843        C844   1.399       .  A
C843       Br850   1.916       .  S
C844        C845   1.403   1_545  A
C844        H849   1.083       .  S
C845       C1136   1.411       .  A
C846       C1135   1.411       .  A
C846       Br847   1.916       .  S
C851        C852   1.405       .  A
C851        C856   1.398       .  A
C851        H858   1.084       .  S
C852       C1143   1.407   1_545  A
C853       C1142   1.407       .  A
C853        C854   1.395       .  A
C853       Br860   1.921       .  S
C854       C1145   1.409       .  A
C854        H859   1.083       .  S
C855       C1144   1.409   1_545  A
C855        C856   1.415       .  A
C861       C1152   1.406       .  A
C861        C866   1.396       .  A
C861        H868   1.084       .  S
C862       C1151   1.406       .  A
C862        C863   1.413   1_565  A
C863        C864   1.396       .  A
C863       Br870   1.922       .  S
C864        C865   1.403   1_545  A
C864        H869   1.084       .  S
C865       C1156   1.410       .  A
C866       C1155   1.410       .  A
O871       Co891   2.001   1_554  S
O872      Co1037   1.905       .  S
O872        C880   1.269       .  A
O873       Co893   1.979       .  S
O873        C881   1.264       .  A
O874      Co1039   1.981   1_554  S
O875      Co1037   2.006       .  S
O876       Co891   1.987   1_554  S
O876        C882   1.255       .  A
O877      Co1039   2.084   1_554  S
O878       Co893   1.975       .  S
O878        C879   1.274       .  A
C879       C1010   1.474       .  S
C880       C1000   1.485       .  S
C881        C960   1.494       .  S
C882        C967   1.490       .  S
O883      Co1036   1.871       .  S
O883        C896   1.277       .  A
O884       Co892   1.989       .  S
O884        C897   1.265   1_655  A
O885      Co1038   1.975       .  S
O886       Co894   1.888       .  S
O887       Co892   2.092       .  S
O887        C899   1.299       .  A
O888      Co1036   2.015       .  S
O888        C898   1.255   1_565  A
O889       Co894   2.111       .  S
O890      Co1038   1.973       .  S
Co891      O1028   1.871       .  S
Co891      O1033   2.015       .  S
Co891       O895   1.881   1_566  S
Co892      O1017   1.905       .  S
Co892      O1020   2.006       .  S
Co893      O1030   1.975   1_554  S
Co893      O1035   1.973   1_554  S
Co894      O1019   1.981       .  S
Co894      O1022   2.084       .  S
C896        C947   1.490       .  S
C898        C987   1.471   1_545  S
C899        C977   1.492       .  S
C900        C970   1.483       .  S
C900        C901   1.401       .  A
C900        C905   1.400       .  A
C901        C902   1.403       .  A
C901        H906   1.084       .  S
C902        C957   1.488       .  S
C902        C903   1.405       .  A
C903        C904   1.415       .  A
C903        H907   1.079       .  S
C904        C913   1.508       .  S
C904        C905   1.413       .  A
C905        H908   1.079       .  S
C909        C950   1.475       .  S
C909        C910   1.392       .  A
C909        C914   1.401       .  A
C910        C911   1.393       .  A
C910        H915   1.085       .  S
C911        C940   1.473       .  S
C911        C912   1.402       .  A
C912        C913   1.417       .  A
C912        H916   1.079       .  S
C913        C914   1.418       .  A
C914        H917   1.079       .  S
C918       C1007   1.482       .  S
C918        C919   1.394       .  A
C918        C923   1.400       .  A
C919        C920   1.396       .  A
C919        H924   1.085       .  S
C920        C997   1.480       .  S
C920        C921   1.406       .  A
C921        C922   1.415       .  A
C921        H925   1.081       .  S
C922        C929   1.501       .  S
C922        C923   1.414       .  A
C923        H926   1.080       .  S
C927        C990   1.482       .  S
C927        C928   1.396       .  A
C927        C932   1.403       .  A
C928        C929   1.410       .  A
C928        H933   1.081       .  S
C929        C930   1.413       .  A
C930        C931   1.410       .  A
C930        H934   1.081       .  S
C931        C980   1.496       .  S
C931        C932   1.409       .  A
C932        H935   1.083       .  S
C936        C941   1.401       .  A
C936        H943   1.081       .  S
C937        C938   1.410       .  A
C938        C939   1.392       .  A
C938       Br945   1.923       .  S
C939        C940   1.402       .  A
C939        H944   1.083       .  S
C941       Br942   1.918       .  S
C946        C947   1.410       .  A
C946        C951   1.395       .  A
C946        H953   1.083       .  S
C948        C949   1.399       .  A
C948       Br955   1.916       .  S
C949        H954   1.084       .  S
C950        C951   1.405       .  A
C951       Br952   1.921       .  S
C956        C961   1.406       .  A
C956        H963   1.084       .  S
C957        C958   1.408       .  A
C958        C959   1.395       .  A
C958       Br965   1.921       .  S
C959        C960   1.410       .  A
C959        H964   1.083       .  S
C961       Br962   1.917       .  S
C966        C971   1.398       .  A
C966        H973   1.083       .  S
C967        C968   1.416       .  A
C968        C969   1.402       .  A
C968       Br975   1.920       .  S
C969        C970   1.404       .  A
C969        H974   1.084       .  S
C971       Br972   1.918       .  S
C976        C977   1.407       .  A
C976        C981   1.396       .  A
C976        H983   1.083       .  S
C978        C979   1.406       .  A
C978       Br985   1.917       .  S
C979        H984   1.083       .  S
C980        C981   1.412       .  A
C981       Br982   1.918       .  S
C986        C987   1.402       .  A
C986        C991   1.401       .  A
C986        H993   1.083       .  S
C988        C989   1.399       .  A
C988       Br995   1.916       .  S
C989        C990   1.403       .  A
C989        H994   1.083       .  S
C991       Br992   1.916       .  S
C996        C997   1.405       .  A
C996       C1001   1.398       .  A
C996       H1003   1.084       .  S
C998        C999   1.395       .  A
C998      Br1005   1.921       .  S
C999       H1004   1.083       .  S
C1000      C1001   1.415       .  A
C1001     Br1147   1.922       .  S
Br1002     C1146   1.922       .  S
C1006      C1011   1.396       .  A
C1006      H1013   1.084       .  S
C1007      C1008   1.412       .  A
C1008      C1009   1.396       .  A
C1008     Br1015   1.922       .  S
C1009      C1010   1.403       .  A
C1009      H1014   1.084       .  S
C1011     Br1157   1.922       .  S
Br1012     C1156   1.922       .  S
O1016     Co1036   2.002       .  S
O1017      C1025   1.269       .  A
O1018     Co1038   1.979       .  S
O1018      C1026   1.264       .  A
O1021     Co1036   1.987       .  S
O1021      C1027   1.255       .  A
O1023     Co1038   1.975       .  S
O1023      C1024   1.274       .  A
C1024      C1155   1.474       .  S
C1025      C1145   1.485       .  S
C1026      C1105   1.494       .  S
C1027      C1112   1.490       .  S
O1028      C1041   1.277       .  A
O1029     Co1037   1.989   1_556  S
O1029      C1042   1.265   1_655  A
O1031     Co1039   1.888       .  S
O1032     Co1037   2.092   1_556  S
O1032      C1044   1.299       .  A
O1033      C1043   1.255   1_565  A
O1034     Co1039   2.111       .  S
Co1036     O1040   1.881   1_565  S
C1041      C1092   1.490       .  S
C1043      C1132   1.471   1_545  S
C1044      C1122   1.492       .  S
C1045      C1115   1.483       .  S
C1045      C1046   1.401       .  A
C1045      C1050   1.400       .  A
C1046      C1047   1.403       .  A
C1046      H1051   1.084       .  S
C1047      C1102   1.488       .  S
C1047      C1048   1.405       .  A
C1048      C1049   1.415       .  A
C1048      H1052   1.079       .  S
C1049      C1058   1.508       .  S
C1049      C1050   1.413       .  A
C1050      H1053   1.079       .  S
C1054      C1095   1.475       .  S
C1054      C1055   1.392       .  A
C1054      C1059   1.401       .  A
C1055      C1056   1.393       .  A
C1055      H1060   1.085       .  S
C1056      C1085   1.473       .  S
C1056      C1057   1.402       .  A
C1057      C1058   1.417       .  A
C1057      H1061   1.079       .  S
C1058      C1059   1.418       .  A
C1059      H1062   1.079       .  S
C1063      C1152   1.483       .  S
C1063      C1064   1.395       .  A
C1063      C1068   1.400       .  A
C1064      C1065   1.396       .  A
C1064      H1069   1.085       .  S
C1065      C1142   1.480       .  S
C1065      C1066   1.406       .  A
C1066      C1067   1.415       .  A
C1066      H1070   1.081       .  S
C1067      C1074   1.501       .  S
C1067      C1068   1.414       .  A
C1068      H1071   1.080       .  S
C1072      C1135   1.482       .  S
C1072      C1073   1.396       .  A
C1072      C1077   1.403       .  A
C1073      C1074   1.410       .  A
C1073      H1078   1.081       .  S
C1074      C1075   1.413       .  A
C1075      C1076   1.410       .  A
C1075      H1079   1.081       .  S
C1076      C1125   1.496       .  S
C1076      C1077   1.409       .  A
C1077      H1080   1.083       .  S
C1081      C1086   1.401       .  A
C1081      H1088   1.081       .  S
C1082      C1083   1.410       .  A
C1083      C1084   1.392       .  A
C1083     Br1090   1.923       .  S
C1084      C1085   1.402       .  A
C1084      H1089   1.083       .  S
C1086     Br1087   1.918       .  S
C1091      C1092   1.410       .  A
C1091      C1096   1.395       .  A
C1091      H1098   1.083       .  S
C1093      C1094   1.399       .  A
C1093     Br1100   1.916       .  S
C1094      H1099   1.084       .  S
C1095      C1096   1.405       .  A
C1096     Br1097   1.921       .  S
C1101      C1106   1.406       .  A
C1101      H1108   1.084       .  S
C1102      C1103   1.408       .  A
C1103      C1104   1.395       .  A
C1103     Br1110   1.921       .  S
C1104      C1105   1.410       .  A
C1104      H1109   1.083       .  S
C1106     Br1107   1.917       .  S
C1111      C1116   1.398       .  A
C1111      H1118   1.083       .  S
C1112      C1113   1.416       .  A
C1113      C1114   1.402       .  A
C1113     Br1120   1.920       .  S
C1114      C1115   1.404       .  A
C1114      H1119   1.084       .  S
C1116     Br1117   1.918       .  S
C1121      C1122   1.407       .  A
C1121      C1126   1.396       .  A
C1121      H1128   1.083       .  S
C1123      C1124   1.406       .  A
C1123     Br1130   1.917       .  S
C1124      H1129   1.083       .  S
C1125      C1126   1.412       .  A
C1126     Br1127   1.918       .  S
C1131      C1132   1.402       .  A
C1131      C1136   1.401       .  A
C1131      H1138   1.083       .  S
C1133      C1134   1.399       .  A
C1133     Br1140   1.916       .  S
C1134      C1135   1.403       .  A
C1134      H1139   1.083       .  S
C1136     Br1137   1.916       .  S
C1141      C1142   1.405       .  A
C1141      C1146   1.398       .  A
C1141      H1148   1.084       .  S
C1143      C1144   1.395       .  A
C1143     Br1150   1.921       .  S
C1144      H1149   1.083       .  S
C1145      C1146   1.415       .  A
C1151      C1156   1.396       .  A
C1151      H1158   1.084       .  S
C1152      C1153   1.413       .  A
C1153      C1154   1.396       .  A
C1153     Br1160   1.922       .  S
C1154      C1155   1.403       .  A
C1154      H1159   1.084       .  S
