geometry optimzed in LAMMPS
_audit_creation_date              2020-12-01 
_audit_creation_method            'lammps2cif' 
_symmetry_space_group_name_H-M    'P1' 
_symmetry_Int_Tables_number       1 
_symmetry_cell_setting            triclinic 
loop_ 
_symmetry_equiv_pos_as_xyz 
  x,y,z 
_cell_length_a                    39.87625565 
_cell_length_b                    39.22768134760718 
_cell_length_c                    39.54924698886423 
_cell_angle_alpha                 90.01018355035751 
_cell_angle_beta                  90.04796280294113 
_cell_angle_gamma                 89.8735934967697 
loop_ 
_atom_site_label 
_atom_site_type_symbol 
_atom_site_fract_x 
_atom_site_fract_y 
_atom_site_fract_z 
_atom_site_charge 
O1          O  0.43135792  0.41729290  0.94185651    -0.75100
O2          O  0.46118171  0.44184750  0.89902732    -0.54000
C3          C  0.43762786  0.42251322  0.91052466     0.78600
O4          O  0.43415816  0.55911856  0.03912640    -0.59700
O5          O  0.46566647  0.53419591  0.08062791    -0.52800
C6          C  0.44299509  0.55498154  0.07019968     0.70600
O7          O  0.43432389  0.54757830  0.92475073    -0.74300
O8          O  0.46701626  0.51606685  0.88927694    -0.54900
C9          C  0.44418214  0.53837482  0.89499601     0.76600
O10         O  0.43936608  0.42404412  0.05315523    -0.59400
O11         O  0.46695093  0.46036519  0.08853563    -0.52600
C12         C  0.44602736  0.43623695  0.08255991     0.73200
Zr13       Zr  0.45581585  0.43473060  0.99495475     2.54700
O14         O  0.39581179  0.42450497  0.99870926    -0.80000
O15         O  0.46743364  0.37380427  0.99669392    -0.93400
Zr16       Zr  0.44941354  0.53543831  0.98393840     2.64700
O17         O  0.38912967  0.52566526  0.98366652    -0.98400
O18         O  0.44143485  0.59679171  0.98033904    -0.80400
O19         O  0.45158434  0.48154135  0.95709182    -0.83800
O20         O  0.45178109  0.48860298  0.02181824    -2.18500
O21         O  0.57179758  0.42968640  0.05187670    -0.67200
O22         O  0.54072970  0.46233492  0.08799744    -0.51700
C23         C  0.56359095  0.44012660  0.08165158     0.71600
O24         O  0.56599214  0.55070250  0.92473818    -0.60100
O25         O  0.53766408  0.51541258  0.88878872    -0.52100
C26         C  0.55910797  0.53908898  0.89502474     0.73400
O27         O  0.56558680  0.56386246  0.03907337    -0.71500
O28         O  0.53801203  0.53538727  0.08091164    -0.50200
C29         C  0.55892320  0.55784880  0.07045965     0.74800
O30         O  0.57488072  0.42222760  0.93736134    -0.66800
O31         O  0.54135256  0.44433545  0.89602628    -0.54000
C32         C  0.56646968  0.42644143  0.90614908     0.73200
Zr33       Zr  0.55488205  0.43991200  0.99323279     2.77500
O34         O  0.61589055  0.44243726  0.99511061    -0.97600
O35         O  0.55506540  0.37795291  0.99639269    -0.78400
Zr36       Zr  0.54928146  0.54098478  0.98351904     2.70100
O37         O  0.61020189  0.54372733  0.98332458    -0.79600
O38         O  0.54327179  0.60228181  0.97607663    -0.98700
Zr39       Zr  0.50174136  0.48099280  0.92469476     2.21500
Zr40       Zr  0.50267117  0.49452881  0.05273258     2.11100
O41         O  0.55312414  0.49374388  0.02060841    -2.47400
O42         O  0.55227001  0.48723241  0.95609869    -0.79400
O43         O  0.50567767  0.43978965  0.02706630    -0.71600
O44         O  0.49937394  0.53555123  0.95141640    -2.32600
O45         O  0.50496690  0.43269917  0.96110585    -2.28800
O46         O  0.49940847  0.54246561  0.01603166    -0.73400
H47         H  0.43265651  0.48921331  0.03652178     0.78600
H48         H  0.49868689  0.55381504  0.93500552     0.79700
H49         H  0.57233705  0.49617090  0.03486500     0.81900
H50         H  0.50572413  0.41203907  0.94843162     0.79500
H51         H  0.46393043  0.60637540  0.98492196     0.42600
H52         H  0.53217352  0.61026217  0.99703081     0.41500
H53         H  0.61747731  0.51965984  0.98136780     0.41200
H54         H  0.62111274  0.45981166  0.01248210     0.39200
H55         H  0.57854014  0.37134763  0.99147929     0.42300
H56         H  0.44602738  0.36342253  0.00401408     0.37100
H57         H  0.38548443  0.44681929  0.99326067     0.43200
H58         H  0.38384482  0.51765909  0.00679887     0.39600
H59         H  0.62290380  0.42054379  0.00540135     0.44500
H60         H  0.48264050  0.37084324  0.01628337     0.43200
H61         H  0.37919551  0.54877914  0.98244746     0.43400
H62         H  0.56644161  0.61115978  0.97769925     0.43700
O63         O  0.44900114  0.94415247  0.42970400    -0.75100
O64         O  0.47975354  0.90433006  0.45837373    -0.54000
C65         C  0.45706443  0.91314038  0.43682298     0.78600
O66         O  0.58419181  0.05764679  0.42729669    -0.59700
O67         O  0.55393217  0.09730828  0.45673395    -0.52800
C68         C  0.57640688  0.08849174  0.43516054     0.70600
O69         O  0.58112781  0.94268632  0.42355675    -0.74300
O70         O  0.55373605  0.90353020  0.45602651    -0.54900
C71         C  0.57427227  0.91175739  0.43224295     0.76600
O72         O  0.44808615  0.06028364  0.43324539    -0.59400
O73         O  0.48171280  0.09932899  0.45899448    -0.52600
C74         C  0.45770861  0.09117902  0.43908877     0.73200
Zr75       Zr  0.46501455  0.00161489  0.44767914     2.54700
O76         O  0.45948939  0.00170749  0.38645069    -0.80000
O77         O  0.40441620  0.00104639  0.45528599    -0.93400
Zr78       Zr  0.56474240  0.00048600  0.44123982     2.64700
O79         O  0.55640452  0.00339071  0.38026952    -0.98400
O80         O  0.62536509  0.99813832  0.43462560    -0.80400
O81         O  0.51468688  0.96808074  0.44358735    -0.83800
O82         O  0.51498410  0.03397499  0.44359385    -2.18500
O83         O  0.45237990  0.05741033  0.56404022    -0.67200
O84         O  0.48081119  0.09733132  0.53340814    -0.51700
C85         C  0.45899706  0.08825822  0.55572447     0.71600
O86         O  0.58478316  0.94610020  0.56218038    -0.60100
O87         O  0.55546253  0.90582231  0.53265290    -0.52100
C88         C  0.57676086  0.91515823  0.55530395     0.73400
O89         O  0.58890341  0.06132985  0.55551702    -0.71500
O90         O  0.55728949  0.09970333  0.52635680    -0.50200
C91         C  0.58076438  0.09212529  0.54718518     0.74800
O92         O  0.45527318  0.94461256  0.56559434    -0.66800
O93         O  0.48164138  0.90481788  0.53294754    -0.54000
C94         C  0.46133687  0.91370368  0.55672977     0.73200
Zr95       Zr  0.47217502  0.00133049  0.54811806     2.77500
O96         O  0.48512250  0.00212451  0.60826965    -0.97600
O97         O  0.41193624  0.00187065  0.55772966    -0.78400
Zr98       Zr  0.57112991  0.00272896  0.54165129     2.70100
O99         O  0.57731796  0.00546392  0.60285365    -0.79600
O100        O  0.63149726  0.99838914  0.53399768    -0.98700
Zr101      Zr  0.51813350  0.93596438  0.49452797     2.21500
Zr102      Zr  0.51779653  0.06628529  0.49469620     2.11100
O103        O  0.52125526  0.03524759  0.54613234    -2.47400
O104        O  0.52192452  0.96871624  0.54514201    -0.79400
O105        O  0.46741991  0.03426825  0.49799484    -0.71600
O106        O  0.56867641  0.96848434  0.49191108    -2.32600
O107        O  0.46769649  0.96855570  0.49783401    -2.28800
O108        O  0.56846576  0.03437494  0.49097840    -0.73400
H109        H  0.51396498  0.04876526  0.42414440     0.78600
H110        H  0.58809074  0.95368642  0.49109930     0.79700
H111        H  0.52221773  0.05027327  0.56538715     0.81900
H112        H  0.44836052  0.95395723  0.49898383     0.79500
H113        H  0.63417949  0.99769663  0.45801397     0.42600
H114        H  0.63689974  0.01638083  0.51735320     0.41500
H115        H  0.56385340  0.02547899  0.60986976     0.41200
H116        H  0.46334160  0.99788928  0.61949128     0.39200
H117        H  0.40243432  0.01253248  0.53713967     0.42300
H118        H  0.39971120  0.97965555  0.46766970     0.37100
H119        H  0.48270461  0.99883816  0.37805335     0.43200
H120        H  0.54808403  0.02677982  0.37591003     0.39600
H121        H  0.49824695  0.98103399  0.61220332     0.44500
H122        H  0.39534363  0.99708118  0.43230976     0.43200
H123        H  0.57938013  0.00318438  0.37078685     0.43400
H124        H  0.64105149  0.00670128  0.55558316     0.43700
O125        O  0.95759065  0.58680186  0.42373063    -0.75100
O126        O  0.91721955  0.55581298  0.45066876    -0.54000
C127        C  0.92679369  0.57887450  0.42964445     0.78600
O128        O  0.06806171  0.44720373  0.42196449    -0.59700
O129        O  0.10676756  0.47613003  0.45336779    -0.52800
C130        C  0.09838631  0.45378071  0.43107878     0.70600
O131        O  0.95518037  0.45376232  0.41550618    -0.74300
O132        O  0.91567518  0.48140709  0.44694278    -0.54900
C133        C  0.92452560  0.46086758  0.42315116     0.76600
O134        O  0.07133967  0.58399113  0.42734790    -0.59400
O135        O  0.10865813  0.55012199  0.45543971    -0.52600
C136        C  0.10137208  0.57384263  0.43434366     0.73200
Zr137      Zr  0.01346857  0.56922918  0.44273679     2.54700
O138        O  0.01431148  0.57915779  0.38209869    -0.80000
O139        O  0.01491152  0.63015513  0.45448842    -0.93400
Zr140      Zr  0.01169841  0.46756830  0.43574605     2.64700
O141        O  0.01537536  0.47270779  0.37453632    -0.98400
O142        O  0.00918307  0.40571370  0.43280047    -0.80400
O143        O  0.98040468  0.51909227  0.43722519    -0.83800
O144        O  0.04473141  0.51768098  0.43895975    -2.18500
O145        O  0.06525168  0.58097661  0.55904977    -0.67200
O146        O  0.10462251  0.55113462  0.52910369    -0.51700
C147        C  0.09560669  0.57332526  0.55125598     0.71600
O148        O  0.95398431  0.44674969  0.55317611    -0.60100
O149        O  0.91558908  0.47721687  0.52253380    -0.52100
C150        C  0.92385333  0.45504017  0.54503522     0.73400
O151        O  0.06708791  0.44279925  0.55360638    -0.71500
O152        O  0.10659426  0.47522663  0.52727505    -0.50200
C153        C  0.09780019  0.45131899  0.54768715     0.74800
O154        O  0.95272090  0.57820091  0.55904467    -0.66800
O155        O  0.91466744  0.55205112  0.52475379    -0.54000
C156        C  0.92247448  0.57191022  0.54941588     0.73200
Zr157      Zr  0.00974262  0.56207519  0.54254526     2.77500
O158        O  0.00948572  0.55228932  0.60333877    -0.97600
O159        O  0.00978416  0.62368112  0.54963501    -0.78400
Zr160      Zr  0.01055754  0.46127275  0.53613579     2.70100
O161        O  0.01014767  0.45793934  0.59757992    -0.79600
O162        O  0.00814071  0.39959898  0.52995955    -0.98700
Zr163      Zr  0.94700178  0.51600277  0.48698092     2.21500
Zr164      Zr  0.07531710  0.51359957  0.49069865     2.11100
O165        O  0.04272599  0.51154687  0.54108166    -2.47400
O166        O  0.97745158  0.51176619  0.53870408    -0.79400
O167        O  0.04425558  0.56548367  0.49368775    -0.71600
O168        O  0.97852147  0.46416790  0.48528576    -2.32600
O169        O  0.97900754  0.56708247  0.49150644    -2.28800
O170        O  0.04345587  0.46275085  0.48643987    -0.73400
H171        H  0.05956556  0.51833629  0.41976550     0.78600
H172        H  0.96381215  0.44468361  0.48387003     0.79700
H173        H  0.05677089  0.51046388  0.56082022     0.81900
H174        H  0.96474013  0.58695897  0.49230773     0.79500
H175        H  0.00426698  0.39843208  0.45623443     0.42600
H176        H  0.02863889  0.39362165  0.51712679     0.41500
H177        H  0.01675181  0.48099649  0.60521443     0.41200
H178        H  0.00709492  0.57531673  0.61332014     0.39200
H179        H  0.00940030  0.63278087  0.52629535     0.42300
H180        H  0.01356346  0.64105143  0.43194259     0.37100
H181        H  0.01422167  0.55601940  0.37210025     0.43200
H182        H  0.00492107  0.45158358  0.36579537     0.39600
H183        H  0.98774119  0.54104819  0.60788371     0.44500
H184        H  0.03810319  0.63462169  0.46224611     0.43200
H185        H  0.99921859  0.49099085  0.36873366     0.43400
H186        H  0.01233858  0.39073751  0.55302193     0.43700
C187        C  0.72531343  0.33818573  0.32322108     0.03300
C188        C  0.70653160  0.35244996  0.29661390    -0.12900
C189        C  0.67815476  0.33569054  0.28381063     0.00800
C190        C  0.66754478  0.30516996  0.29867928    -0.11400
C191        C  0.68545423  0.29101305  0.32580028     0.03300
C192        C  0.71468554  0.30716912  0.33753445    -0.10800
H193        H  0.71435560  0.37635602  0.28540437     0.08900
H194        H  0.64530304  0.29248911  0.28922047     0.06400
H195        H  0.72886920  0.29580773  0.35803367     0.06300
C196        C  0.73021268  0.67630433  0.30108920     0.03300
C197        C  0.71493493  0.66088994  0.27289653    -0.12900
C198        C  0.68401488  0.67306605  0.26064974     0.00800
C199        C  0.66857575  0.70107010  0.27650400    -0.11400
C200        C  0.68383303  0.71700223  0.30434570     0.03300
C201        C  0.71467160  0.70456305  0.31629256    -0.10800
H202        H  0.72669367  0.63905497  0.26097323     0.08900
H203        H  0.64445251  0.71008824  0.26751888     0.06400
H204        H  0.72619740  0.71639179  0.33817248     0.06300
C205        C  0.69776113  0.32745998  0.71194538     0.03300
C206        C  0.68444033  0.29837027  0.69625570    -0.12900
C207        C  0.69893883  0.28536053  0.66657097     0.00800
C208        C  0.72688397  0.30188447  0.65257103    -0.11400
C209        C  0.73971040  0.33162304  0.66735068     0.03300
C210        C  0.72542421  0.34399417  0.69736795    -0.10800
H211        H  0.66229241  0.28637248  0.70670779     0.08900
H212        H  0.73795008  0.29225903  0.62942113     0.06400
H213        H  0.73533445  0.36690016  0.70895931     0.06300
C214        C  0.34643470  0.71482942  0.31869476     0.03300
C215        C  0.31747245  0.69973686  0.33207815    -0.12900
C216        C  0.30149918  0.67293136  0.31496404     0.00800
C217        C  0.31509947  0.66082540  0.28452703    -0.11400
C218        C  0.34439615  0.67526751  0.27111219     0.03300
C219        C  0.35978476  0.70253613  0.28817490    -0.10800
H220        H  0.30718160  0.70908979  0.35569493     0.08900
H221        H  0.30304398  0.63989448  0.27142202     0.06400
H222        H  0.38207200  0.71421571  0.27767782     0.06300
C223        C  0.34653563  0.66251113  0.69497910     0.03300
C224        C  0.36009255  0.69426130  0.68591384    -0.12900
C225        C  0.34394240  0.71477499  0.66175266     0.00800
C226        C  0.31324067  0.70429891  0.64808812    -0.11400
C227        C  0.30006472  0.67249766  0.65655644     0.03300
C228        C  0.31721378  0.65123159  0.67901823    -0.10800
H229        H  0.38317935  0.70294888  0.69749882     0.08900
H230        H  0.30017713  0.72038968  0.63006935     0.06400
H231        H  0.30696576  0.62640152  0.68510360     0.06300
C232        C  0.31795610  0.31271350  0.71594030     0.03300
C233        C  0.33230023  0.28324491  0.70190162    -0.12900
C234        C  0.32176206  0.27135979  0.67014416     0.00800
C235        C  0.29640769  0.28902945  0.65262527    -0.11400
C236        C  0.28134605  0.31820563  0.66676423     0.03300
C237        C  0.29216757  0.32970396  0.69859799    -0.10800
H238        H  0.35295027  0.27073806  0.71475929     0.08900
H239        H  0.28914922  0.28066779  0.62755190     0.06400
H240        H  0.28131969  0.35261492  0.70937853     0.06300
C241        C  0.68270160  0.66881594  0.71455231     0.03300
C242        C  0.66718535  0.69868082  0.70275051    -0.12900
C243        C  0.68266392  0.71861903  0.67787663     0.00800
C244        C  0.71392224  0.70868664  0.66495741    -0.11400
C245        C  0.72911539  0.67826756  0.67566119     0.03300
C246        C  0.71367672  0.65882337  0.70097204    -0.10800
H247        H  0.64284787  0.70610631  0.71251386     0.08900
H248        H  0.72569734  0.72385130  0.64538700     0.06400
H249        H  0.72522708  0.63524555  0.70933178     0.06300
C250        C  0.33635615  0.28390842  0.32365592     0.03300
C251        C  0.34737263  0.29897912  0.29352989    -0.12900
C252        C  0.33067327  0.32734013  0.28006082     0.00800
C253        C  0.30185964  0.33981373  0.29611000    -0.11400
C254        C  0.29057877  0.32502516  0.32626342     0.03300
C255        C  0.30804640  0.29729099  0.34011949    -0.10800
H256        H  0.36945745  0.28907334  0.28089665     0.08900
H257        H  0.28879727  0.36169207  0.28569237     0.06400
H258        H  0.29975943  0.28634826  0.36383812     0.06300
C259        C  0.12495828  0.43227052  0.56566424     0.01500
C260        C  0.12434719  0.42868674  0.60130301     0.04300
C261        C  0.15000937  0.41046702  0.61808771    -0.11700
C262        C  0.17611553  0.39516195  0.59945213     0.23600
C263        C  0.17675946  0.39846124  0.56407708    -0.12300
C264        C  0.15184914  0.41756117  0.54733286     0.05000
C265        C  0.20308338  0.37550261  0.61678784     0.27400
C266        C  0.23422258  0.39093760  0.62364671    -0.13000
C267        C  0.26028752  0.37185409  0.63860378     0.05500
C268        C  0.25495797  0.33748185  0.64803871    -0.09000
C269        C  0.22397785  0.32189142  0.64027449     0.06400
C270        C  0.19837728  0.34073842  0.62426412    -0.13300
Br271      Br  0.21172877  0.37590962  0.53860181    -0.05400
Br272      Br  0.08960667  0.45029610  0.62771219     0.00200
Br273      Br  0.30392428  0.39232555  0.64376959     0.00700
Br274      Br  0.15704203  0.31878334  0.61144643    -0.03700
Br275      Br  0.15503784  0.42278474  0.49912968     0.00800
Br276      Br  0.14966191  0.40641588  0.66671432    -0.03000
Br277      Br  0.24124989  0.43811351  0.61161777    -0.03900
Br278      Br  0.21604890  0.27484986  0.65204435     0.00100
C279        C  0.26827032  0.66113266  0.64180568     0.01500
C280        C  0.26839134  0.64322960  0.61099371     0.04300
C281        C  0.23807977  0.63196991  0.59707055    -0.11700
C282        C  0.20804502  0.63640819  0.61522002     0.23600
C283        C  0.20801284  0.65326149  0.64660850    -0.12300
C284        C  0.23801338  0.66679384  0.65930713     0.05000
C285        C  0.17699595  0.62146378  0.60185510     0.27400
C286        C  0.15499556  0.64137122  0.58216865    -0.13000
C287        C  0.12770715  0.62583154  0.56587007     0.05500
C288        C  0.12236066  0.59056446  0.56987090    -0.09000
C289        C  0.14343442  0.57118958  0.59098934     0.06400
C290        C  0.17100343  0.58650128  0.60665584    -0.13300
Br291      Br  0.16727690  0.65622009  0.67273996    -0.05400
Br292      Br  0.31014618  0.63249766  0.58884835     0.00200
Br293      Br  0.09913533  0.65229068  0.53642967     0.00700
Br294      Br  0.20141735  0.55935796  0.63359352    -0.03700
Br295      Br  0.23769634  0.69288741  0.70061455     0.00800
Br296      Br  0.23759594  0.60964225  0.55353848    -0.03000
Br297      Br  0.16320958  0.68949782  0.57663207    -0.03900
Br298      Br  0.13425721  0.52372439  0.59889450     0.00100
C299        C  0.12972517  0.58949380  0.41593125     0.01500
C300        C  0.12892915  0.59157778  0.38022949     0.04300
C301        C  0.15669909  0.60439393  0.36250507    -0.11700
C302        C  0.18551636  0.61477940  0.38022325     0.23600
C303        C  0.18676426  0.61218462  0.41567249    -0.12300
C304        C  0.15890847  0.59981368  0.43356617     0.05000
C305        C  0.21448140  0.62892773  0.36166228     0.27400
C306        C  0.24297029  0.60857044  0.35564258    -0.13000
C307        C  0.27144675  0.62284945  0.34024925     0.05500
C308        C  0.27091435  0.65718674  0.32944079    -0.09000
C309        C  0.24146004  0.67680874  0.33371542     0.06400
C310        C  0.21377642  0.66307125  0.35084569    -0.13300
Br311      Br  0.22703824  0.62530634  0.43957628    -0.05400
Br312      Br  0.09123885  0.57426184  0.35489788     0.00200
Br313      Br  0.31155782  0.59562710  0.33561903     0.00700
Br314      Br  0.17516747  0.69125401  0.36062426    -0.03700
Br315      Br  0.16102966  0.59805528  0.48229822     0.00800
Br316      Br  0.15586616  0.60683104  0.31373212    -0.03000
Br317      Br  0.24302762  0.56132480  0.36939932    -0.03900
Br318      Br  0.23800830  0.72184875  0.31465261     0.00100
C319        C  0.26151049  0.34007648  0.34403484     0.01500
C320        C  0.26629560  0.35799738  0.37458186     0.04300
C321        C  0.23911841  0.37483212  0.38994396    -0.11700
C322        C  0.20751404  0.37519913  0.37400197     0.23600
C323        C  0.20259025  0.35681966  0.34377630    -0.12300
C324        C  0.22933015  0.33849310  0.32933441     0.05000
C325        C  0.17957747  0.39538672  0.38866971     0.27400
C326        C  0.15470240  0.37913705  0.40801677    -0.13000
C327        C  0.12723824  0.39794928  0.42041936     0.05500
C328        C  0.12564938  0.43358706  0.41532643    -0.09000
C329        C  0.15108247  0.44993349  0.39659331     0.06400
C330        C  0.17770971  0.43078282  0.38287780    -0.13300
Br331      Br  0.15944930  0.35771788  0.32165963    -0.05400
Br332      Br  0.31039972  0.36108381  0.39451188     0.00200
Br333      Br  0.09273567  0.37493133  0.44582852     0.00700
Br334      Br  0.21185896  0.45289393  0.35617991    -0.03700
Br335      Br  0.22176380  0.31045969  0.28994759     0.00800
Br336      Br  0.24508062  0.39775378  0.43268210    -0.03000
Br337      Br  0.15932628  0.33133968  0.41869446    -0.03900
Br338      Br  0.14888368  0.49836931  0.38857767     0.00100
C339        C  0.89475985  0.58836993  0.56858798     0.01500
C340        C  0.86743142  0.56874127  0.58042475     0.04300
C341        C  0.84235050  0.58385500  0.60043505    -0.11700
C342        C  0.84387146  0.61880590  0.60825138     0.23600
C343        C  0.87070394  0.63863898  0.59623830    -0.12300
C344        C  0.89588677  0.62362154  0.57615572     0.05000
C345        C  0.81524530  0.63533990  0.62574618     0.27400
C346        C  0.78629550  0.64357320  0.60704275    -0.13000
C347        C  0.75821382  0.65766874  0.62329985     0.05500
C348        C  0.75942676  0.66501081  0.65829557    -0.09000
C349        C  0.78896851  0.65788202  0.67679049     0.06400
C350        C  0.81654771  0.64236425  0.66066810    -0.13300
Br351      Br  0.87228004  0.68667043  0.60675636    -0.05400
Br352      Br  0.86359082  0.52104027  0.56965418     0.00200
Br353      Br  0.71758003  0.66477116  0.59751518     0.00700
Br354      Br  0.85586975  0.63007371  0.68639844    -0.03700
Br355      Br  0.92997320  0.65230327  0.55652686     0.00800
Br356      Br  0.80538485  0.55678129  0.61697455    -0.03000
Br357      Br  0.78509657  0.63493946  0.55893761    -0.03900
Br358      Br  0.79217783  0.67039342  0.72391834     0.00100
C359        C  0.89681896  0.43774132  0.56338471     0.01500
C360        C  0.87406212  0.41675911  0.54584919     0.04300
C361        C  0.84968283  0.39848139  0.56388011    -0.11700
C362        C  0.84662940  0.40293189  0.59909190     0.23600
C363        C  0.86828195  0.42524263  0.61637091    -0.12300
C364        C  0.89416971  0.44167359  0.59875241     0.05000
C365        C  0.81972777  0.38510474  0.61764619     0.27400
C366        C  0.78772025  0.39998808  0.61960126    -0.13000
C367        C  0.76141015  0.38225974  0.63524661     0.05500
C368        C  0.76742427  0.35030556  0.65064951    -0.09000
C369        C  0.79977162  0.33573759  0.64911993     0.06400
C370        C  0.82575745  0.35291331  0.63219702    -0.13300
Br371      Br  0.86160144  0.43415039  0.66386898    -0.05400
Br372      Br  0.87671014  0.41239124  0.49730010     0.00200
Br373      Br  0.71684098  0.40082238  0.63273171     0.00700
Br374      Br  0.86951448  0.33225559  0.62826759    -0.03700
Br375      Br  0.92514466  0.47063241  0.62295090     0.00800
Br376      Br  0.82059741  0.36703999  0.54053650    -0.03000
Br377      Br  0.78010079  0.44462110  0.60028815    -0.03900
Br378      Br  0.80856130  0.29233711  0.67033274     0.00100
C379        C  0.89754483  0.44342838  0.40365592     0.01500
C380        C  0.89791806  0.40751420  0.40007145     0.04300
C381        C  0.87136970  0.39071000  0.38354927    -0.11700
C382        C  0.84412751  0.40946626  0.37061108     0.23600
C383        C  0.84434940  0.44530841  0.37259350    -0.12300
C384        C  0.87080370  0.46225546  0.38923091     0.05000
C385        C  0.81382632  0.39127881  0.35812899     0.27400
C386        C  0.81186883  0.37966331  0.32451734    -0.13000
C387        C  0.78332943  0.36173802  0.31336330     0.05500
C388        C  0.75617847  0.35573381  0.33562085    -0.09000
C389        C  0.75855958  0.36707057  0.36950669     0.06400
C390        C  0.78734257  0.38453497  0.38067584    -0.13300
Br391      Br  0.80798590  0.47097666  0.35272090    -0.05400
Br392      Br  0.93317045  0.38050361  0.42009975     0.00200
Br393      Br  0.78273372  0.34371963  0.26804601     0.00700
Br394      Br  0.79099675  0.39894986  0.42725953    -0.03700
Br395      Br  0.87027401  0.51129758  0.39158961     0.00800
Br396      Br  0.87152467  0.34165290  0.37954261    -0.03000
Br397      Br  0.84874689  0.38774578  0.29402254    -0.03900
Br398      Br  0.72233641  0.35977765  0.40088404     0.00100
C399        C  0.76147464  0.66220199  0.31634081     0.01500
C400        C  0.79072985  0.68240862  0.31810097     0.04300
C401        C  0.81869663  0.67119193  0.33693397    -0.11700
C402        C  0.81827582  0.63895382  0.35261938     0.23600
C403        C  0.78990000  0.61793082  0.34926827    -0.12300
C404        C  0.76134704  0.62974485  0.33187345     0.05000
C405        C  0.84770852  0.62660353  0.37229295     0.27400
C406        C  0.87421880  0.60987382  0.35560815    -0.13000
C407        C  0.90069221  0.59540789  0.37434024     0.05500
C408        C  0.90048104  0.59695679  0.41004168    -0.09000
C409        C  0.87429391  0.61450414  0.42671070     0.06400
C410        C  0.84811788  0.62949622  0.40783071    -0.13300
Br411      Br  0.79024159  0.57287265  0.36894753    -0.05400
Br412      Br  0.79293547  0.72494602  0.29370769     0.00200
Br413      Br  0.93588688  0.57123600  0.35087298     0.00700
Br414      Br  0.81237501  0.65361141  0.43048591    -0.03700
Br415      Br  0.72164933  0.60188242  0.33132779     0.00800
Br416      Br  0.85740306  0.70013498  0.34196833    -0.03000
Br417      Br  0.87332039  0.60547280  0.30701649    -0.03900
Br418      Br  0.87456911  0.61873312  0.47533609     0.00100
C419        C  0.59938199  0.12098735  0.56289019     0.01500
C420        C  0.58201067  0.15011511  0.57513363     0.04300
C421        C  0.59932542  0.17548441  0.59316188    -0.11700
C422        C  0.63438367  0.17364025  0.59663303     0.23600
C423        C  0.65217583  0.14644422  0.58189281    -0.12300
C424        C  0.63478001  0.12001780  0.56539412     0.05000
C425        C  0.65253004  0.20148489  0.61417402     0.27400
C426        C  0.65722233  0.23290864  0.59768809    -0.13000
C427        C  0.67111036  0.26059356  0.61529823     0.05500
C428        C  0.68331484  0.25616127  0.64858414    -0.09000
C429        C  0.68012472  0.22403353  0.66447624     0.06400
C430        C  0.66371610  0.19714235  0.64769117    -0.13300
Br431      Br  0.70056766  0.14625203  0.58339757    -0.05400
Br432      Br  0.53493499  0.15731301  0.56614922     0.00200
Br433      Br  0.67073749  0.30513663  0.59445139     0.00700
Br434      Br  0.65584250  0.15449116  0.67069020    -0.03700
Br435      Br  0.66012830  0.08472570  0.54308084     0.00800
Br436      Br  0.57505466  0.21313440  0.61324236    -0.03000
Br437      Br  0.64447466  0.23790576  0.55082198    -0.03900
Br438      Br  0.69912663  0.21617325  0.70865885     0.00100
C439        C  0.43903770  0.11492974  0.57263212     0.01500
C440        C  0.40745092  0.12400818  0.55938544     0.04300
C441        C  0.38826463  0.14966203  0.57510166    -0.10900
C442        C  0.40000710  0.16540972  0.60489055     0.23600
C443        C  0.43086243  0.15505800  0.61906609    -0.12300
C444        C  0.45002709  0.12936098  0.60331512     0.05000
C445        C  0.37959345  0.19235489  0.62164484     0.27400
C446        C  0.38423567  0.22680840  0.61284337    -0.13000
C447        C  0.36502600  0.25240492  0.62858522     0.05500
C448        C  0.34084954  0.24374993  0.65310160    -0.09000
C449        C  0.33601465  0.20922136  0.66183813     0.06400
C450        C  0.35555689  0.18358901  0.64630502    -0.13300
Br451      Br  0.44664142  0.17603645  0.66018566    -0.05400
Br452      Br  0.38949966  0.09944760  0.52108601     0.00200
Br453      Br  0.37235324  0.29964369  0.61713896     0.00700
Br454      Br  0.34992015  0.13643158  0.65893784    -0.03700
Br455      Br  0.48960042  0.11165245  0.62531229     0.00800
Br456      Br  0.34585154  0.16326524  0.55589745    -0.03000
Br457      Br  0.41733979  0.23889640  0.57944582    -0.03900
Br458      Br  0.30219653  0.19704669  0.69445692     0.00100
C459        C  0.44074048  0.11933462  0.42074941     0.01500
C460        C  0.43182514  0.15003787  0.43753861     0.04300
C461        C  0.41430290  0.17564577  0.42001924    -0.11700
C462        C  0.40784966  0.17201779  0.38526100     0.23600
C463        C  0.41894475  0.14289180  0.36786733    -0.12300
C464        C  0.43492491  0.11639397  0.38555973     0.05000
C465        C  0.39006994  0.19949828  0.36702451     0.27400
C466        C  0.35546062  0.19672891  0.36072574    -0.13000
C467        C  0.33824519  0.22362454  0.34488478     0.05500
C468        C  0.35496772  0.25465273  0.33826160    -0.09000
C469        C  0.38958036  0.25758948  0.34561186     0.06400
C470        C  0.40737981  0.22936245  0.35812433    -0.13300
Br471      Br  0.41321558  0.14004385  0.31948479    -0.05400
Br472      Br  0.44424192  0.15871056  0.48395343     0.00200
Br473      Br  0.29217003  0.21714334  0.33126861     0.00700
Br474      Br  0.45548845  0.23144674  0.36353234    -0.03700
Br475      Br  0.45179311  0.07788493  0.36035480     0.00800
Br476      Br  0.39886920  0.21601639  0.44349341    -0.03000
Br477      Br  0.33154608  0.15647997  0.37494098    -0.03900
Br478      Br  0.41230213  0.30085981  0.34180932     0.00100
C479        C  0.59430058  0.11611565  0.41784531     0.01500
C480        C  0.62907871  0.12036629  0.42252646     0.04300
C481        C  0.64549235  0.14835243  0.40774170    -0.11700
C482        C  0.62718263  0.17178472  0.38792374     0.23600
C483        C  0.59262700  0.16681795  0.38240180    -0.12300
C484        C  0.57622824  0.13902390  0.39733074     0.05000
C485        C  0.64397531  0.20186685  0.37296430     0.27400
C486        C  0.64115652  0.23388206  0.38884442    -0.13000
C487        C  0.65511290  0.26292515  0.37356062     0.05500
C488        C  0.67253995  0.25999494  0.34266944    -0.09000
C489        C  0.67556599  0.22785970  0.32693475     0.06400
C490        C  0.66099109  0.19889826  0.34190062    -0.13300
Br491      Br  0.56773639  0.19824780  0.35441170    -0.05400
Br492      Br  0.65398184  0.08844764  0.44993599     0.00200
Br493      Br  0.64835103  0.30705292  0.39388707     0.00700
Br494      Br  0.66281046  0.15535497  0.31924846    -0.03700
Br495      Br  0.52921021  0.13149852  0.38854758     0.00800
Br496      Br  0.69285416  0.15500495  0.41506247    -0.03000
Br497      Br  0.61685648  0.23804069  0.43087819    -0.03900
Br498      Br  0.69933048  0.22361970  0.28470206     0.00100
C499        C  0.44349665  0.88659247  0.57546898     0.01500
C500        C  0.46154625  0.85881399  0.58921139     0.04300
C501        C  0.44464911  0.83323751  0.60718538    -0.11700
C502        C  0.40962950  0.83482078  0.61089501     0.23600
C503        C  0.39149109  0.86260604  0.59786278    -0.12300
C504        C  0.40832812  0.88859930  0.58032266     0.05000
C505        C  0.39160056  0.80495804  0.62428370     0.27400
C506        C  0.38482708  0.77764586  0.60232731    -0.13000
C507        C  0.36988419  0.74795337  0.61483465     0.05500
C508        C  0.35999722  0.74614767  0.64906763    -0.09000
C509        C  0.36555587  0.77415507  0.67076513     0.06400
C510        C  0.38204023  0.80331505  0.65849874    -0.13300
Br511      Br  0.34328994  0.86386804  0.60277368    -0.05400
Br512      Br  0.50948154  0.85544016  0.58410054     0.00200
Br513      Br  0.36474846  0.70928557  0.58510713     0.00700
Br514      Br  0.39184064  0.84091379  0.68830850    -0.03700
Br515      Br  0.38229991  0.92525584  0.56094274     0.00800
Br516      Br  0.46919138  0.79521361  0.62607241    -0.03000
Br517      Br  0.39625381  0.78110119  0.55493463    -0.03900
Br518      Br  0.34949702  0.77315115  0.71676417     0.00100
C519        C  0.59342149  0.88826819  0.57502727     0.01500
C520        C  0.58948328  0.88695616  0.61047214     0.04300
C521        C  0.60352750  0.85979679  0.62886559    -0.11700
C522        C  0.62302598  0.83503035  0.61213328     0.23600
C523        C  0.62878317  0.83767258  0.57707713    -0.12300
C524        C  0.61328556  0.86374745  0.55841206     0.05000
C525        C  0.63691420  0.80571511  0.63111375     0.27400
C526        C  0.66582072  0.80975297  0.65118928    -0.13000
C527        C  0.67961636  0.78151678  0.66811864     0.05500
C528        C  0.66554251  0.74887908  0.66366616    -0.09000
C529        C  0.63634167  0.74494528  0.64382869     0.06400
C530        C  0.62158856  0.77351076  0.62830109    -0.13300
Br531      Br  0.65850366  0.80594036  0.55480431    -0.05400
Br532      Br  0.56383268  0.92151696  0.63380229     0.00200
Br533      Br  0.71744745  0.78760325  0.69794731     0.00700
Br534      Br  0.58048675  0.76867940  0.60284826    -0.03700
Br535      Br  0.62022925  0.86654753  0.51022206     0.00800
Br536      Br  0.59557150  0.85601209  0.67685613    -0.03000
Br537      Br  0.68699154  0.85381063  0.65467465    -0.03900
Br538      Br  0.61761072  0.70027363  0.63605361     0.00100
C539        C  0.66696851  0.74559998  0.32237655     0.01500
C540        C  0.66263841  0.77758609  0.30654746     0.04300
C541        C  0.64774891  0.80486430  0.32437132    -0.11700
C542        C  0.63785934  0.80062921  0.35835311     0.23600
C543        C  0.64218191  0.76871030  0.37414350    -0.12300
C544        C  0.65612415  0.74116016  0.35608344     0.05000
C545        C  0.62184936  0.82933276  0.37719344     0.27400
C546        C  0.64163090  0.85397961  0.39376813    -0.13000
C547        C  0.62626600  0.88096343  0.41174841     0.05500
C548        C  0.59089437  0.88350061  0.41325561    -0.09000
C549        C  0.57130124  0.85845715  0.39685973     0.06400
C550        C  0.58666612  0.83151125  0.37907508    -0.13300
Br551      Br  0.62893765  0.76287475  0.42068954    -0.05400
Br552      Br  0.67809838  0.78447473  0.26084158     0.00200
Br553      Br  0.65383232  0.91312683  0.43595246     0.00700
Br554      Br  0.55951386  0.79701942  0.35756311    -0.03700
Br555      Br  0.65902173  0.69684531  0.37717137     0.00800
Br556      Br  0.64064929  0.84812926  0.30230681    -0.03000
Br557      Br  0.68984088  0.84994613  0.39249369    -0.03900
Br558      Br  0.52319646  0.86123609  0.39772804     0.00100
C559        C  0.36179273  0.74455077  0.33594645     0.01500
C560        C  0.39279735  0.74136256  0.35290281     0.04300
C561        C  0.40771183  0.77015250  0.36792619    -0.11700
C562        C  0.39037211  0.80150717  0.36864473     0.23600
C563        C  0.35888407  0.80439936  0.35280013    -0.12300
C564        C  0.34527015  0.77638571  0.33540472     0.05000
C565        C  0.40550818  0.83145091  0.38581384     0.27400
C566        C  0.40302723  0.83489808  0.42115139    -0.13000
C567        C  0.42032422  0.86124988  0.43786095     0.05500
C568        C  0.43860489  0.88556764  0.41908831    -0.09000
C569        C  0.43882700  0.88352037  0.38336158     0.06400
C570        C  0.42284850  0.85615081  0.36687194    -0.13300
Br571      Br  0.33451989  0.84687432  0.35494794    -0.05400
Br572      Br  0.41407909  0.69741476  0.35710076     0.00200
Br573      Br  0.41783067  0.86454297  0.48644553     0.00700
Br574      Br  0.42443450  0.85231013  0.31821921    -0.03700
Br575      Br  0.30483948  0.78225335  0.30936778     0.00800
Br576      Br  0.45237484  0.76713050  0.38657221    -0.03000
Br577      Br  0.37452798  0.80432499  0.44628210    -0.03900
Br578      Br  0.46215290  0.91719666  0.35675498     0.00100
C579        C  0.58108309  0.42472062  0.11084883     0.01500
C580        C  0.59727282  0.44545489  0.13507454     0.04300
C581        C  0.61343187  0.43051137  0.16300900    -0.11700
C582        C  0.61181154  0.39502474  0.16792015     0.23600
C583        C  0.59494808  0.37435970  0.14428925    -0.12300
C584        C  0.58034963  0.38903748  0.11537707     0.05000
C585        C  0.62831162  0.37933681  0.19768377     0.27400
C586        C  0.65956660  0.36307614  0.19385950    -0.13000
C587        C  0.67486510  0.34724756  0.22174542     0.05500
C588        C  0.66023610  0.34974623  0.25409962    -0.09000
C589        C  0.62896973  0.36616936  0.25797825     0.06400
C590        C  0.61274208  0.38043273  0.22965956    -0.13300
Br591      Br  0.59111159  0.32597669  0.15213350    -0.05400
Br592      Br  0.59789554  0.49427252  0.13018058     0.00200
Br593      Br  0.71472128  0.32028355  0.21507106     0.00700
Br594      Br  0.56926532  0.40161568  0.23445138    -0.03700
Br595      Br  0.55755357  0.36021121  0.08313322     0.00800
Br596      Br  0.63829449  0.45845826  0.19445105    -0.03000
Br597      Br  0.68173762  0.36326939  0.15046821    -0.03900
Br598      Br  0.60861598  0.36948259  0.30207414     0.00100
C599        C  0.57756184  0.57700014  0.09674712     0.01500
C600        C  0.56025017  0.59363149  0.12327366     0.04300
C601        C  0.57814476  0.61055431  0.14889014    -0.11700
C602        C  0.61335717  0.60838460  0.14997426     0.23600
C603        C  0.63073269  0.59088526  0.12425041    -0.12300
C604        C  0.61299392  0.57602877  0.09723524     0.05000
C605        C  0.63208088  0.62447937  0.17823126     0.27400
C606        C  0.64920399  0.65538189  0.17291618    -0.13000
C607        C  0.66736351  0.67048816  0.19950035     0.05500
C608        C  0.66696044  0.65578019  0.23203456    -0.09000
C609        C  0.64912210  0.62523897  0.23749815     0.06400
C610        C  0.63241467  0.60917560  0.21049056    -0.13300
Br611      Br  0.67889596  0.58645673  0.12668083    -0.05400
Br612      Br  0.51206936  0.59274036  0.12564955     0.00200
Br613      Br  0.69331170  0.71099313  0.19115988     0.00700
Br614      Br  0.60975165  0.56629096  0.21764311    -0.03700
Br615      Br  0.63744513  0.55145925  0.06283078     0.00800
Br616      Br  0.55452300  0.63733163  0.18232099    -0.03000
Br617      Br  0.64678193  0.67742549  0.12933777    -0.03900
Br618      Br  0.64618133  0.60616005  0.28226067     0.00100
C619        C  0.42589883  0.57548208  0.09621348     0.01500
C620        C  0.43130485  0.61091847  0.09813900     0.04300
C621        C  0.41856904  0.62953263  0.12576973    -0.11700
C622        C  0.39878463  0.61310280  0.15035751     0.23600
C623        C  0.39180443  0.57806926  0.14728015    -0.12300
C624        C  0.40612832  0.55916930  0.12083046     0.05000
C625        C  0.38622627  0.63198563  0.18028462     0.27400
C626        C  0.40466948  0.63125229  0.21063722    -0.13000
C627        C  0.39097579  0.64527850  0.24032249     0.05500
C628        C  0.35919888  0.66127806  0.23953516    -0.09000
C629        C  0.34127372  0.66300072  0.20871852     0.06400
C630        C  0.35478932  0.64832685  0.17920144    -0.13300
Br631      Br  0.36284388  0.55590245  0.17959324    -0.05400
Br632      Br  0.45793191  0.63346078  0.06410332     0.00200
Br633      Br  0.41481582  0.64000811  0.28245011     0.00700
Br634      Br  0.33033672  0.65024759  0.13712989    -0.03700
Br635      Br  0.39880732  0.51082202  0.11855397     0.00800
Br636      Br  0.42935473  0.67709596  0.13087683    -0.03000
Br637      Br  0.44869644  0.61065499  0.21136951    -0.03900
Br638      Br  0.29820607  0.68546757  0.20671507     0.00100
C639        C  0.42794031  0.42154348  0.11149677     0.01500
C640        C  0.44596406  0.40817285  0.13922147     0.04300
C641        C  0.42870099  0.39321655  0.16629580    -0.11700
C642        C  0.39342796  0.39251728  0.16621239     0.23600
C643        C  0.37530617  0.40661179  0.13907931    -0.12300
C644        C  0.39249193  0.42060026  0.11142836     0.05000
C645        C  0.37547186  0.37659473  0.19467186     0.27400
C646        C  0.36389551  0.34286615  0.19175278    -0.13000
C647        C  0.34762053  0.32734288  0.21916115     0.05500
C648        C  0.34459415  0.34489903  0.25016449    -0.09000
C649        C  0.35657773  0.37866647  0.25307017     0.06400
C650        C  0.37113382  0.39477552  0.22500520    -0.13300
Br651      Br  0.32689456  0.40700200  0.14020235    -0.05400
Br652      Br  0.49431640  0.40879782  0.13977955     0.00200
Br653      Br  0.32883189  0.28234842  0.21384900     0.00700
Br654      Br  0.38588527  0.44156353  0.22801993    -0.03700
Br655      Br  0.36703846  0.43958407  0.07431339     0.00800
Br656      Br  0.45326436  0.37305128  0.20339455    -0.03000
Br657      Br  0.37143409  0.31768932  0.15048486    -0.03900
Br658      Br  0.35539196  0.40226219  0.29591866     0.00100
C659        C  0.57762692  0.55409263  0.86609617     0.01500
C660        C  0.56021486  0.56881790  0.83855088     0.04300
C661        C  0.57803354  0.58529137  0.81253215    -0.11700
C662        C  0.61330428  0.58655263  0.81350897     0.23600
C663        C  0.63080179  0.57047691  0.83998717    -0.12300
C664        C  0.61307241  0.55479689  0.86647112     0.05000
C665        C  0.63187460  0.60708834  0.78821895     0.27400
C666        C  0.63956360  0.59343269  0.75620608    -0.13000
C667        C  0.65598492  0.61364522  0.73195729     0.05500
C668        C  0.66580223  0.64726858  0.74011046    -0.09000
C669        C  0.65912200  0.66043089  0.77262826     0.06400
C670        C  0.64167947  0.64059373  0.79637804    -0.13300
Br671      Br  0.67921804  0.57055789  0.84002541    -0.05400
Br672      Br  0.51194194  0.56886428  0.83730647     0.00200
Br673      Br  0.66362920  0.59555976  0.68715829     0.00700
Br674      Br  0.63091692  0.65935204  0.84019425    -0.03700
Br675      Br  0.63776220  0.53430003  0.90313798     0.00800
Br676      Br  0.55424339  0.60750540  0.77610859    -0.03000
Br677      Br  0.62761513  0.54697818  0.74574965    -0.03900
Br678      Br  0.67504022  0.70513360  0.78526789     0.00100
C679        C  0.68124076  0.34198123  0.74230964     0.01500
C680        C  0.66390520  0.37328287  0.73993866     0.04300
C681        C  0.64830338  0.38734555  0.76852843    -0.11700
C682        C  0.64803082  0.36920072  0.79920584     0.23600
C683        C  0.66520836  0.33787947  0.80179162    -0.12300
C684        C  0.68219736  0.32449532  0.77350744     0.05000
C685        C  0.62764070  0.38214860  0.82781149     0.27400
C686        C  0.64269788  0.40086019  0.85408298    -0.13000
C687        C  0.62281323  0.41481982  0.88005534     0.05500
C688        C  0.58763328  0.41014989  0.87983775    -0.09000
C689        C  0.57273674  0.39125040  0.85337806     0.06400
C690        C  0.59269155  0.37719785  0.82759961    -0.13300
Br691      Br  0.66504330  0.31330560  0.84403764    -0.05400
Br692      Br  0.65882119  0.39578342  0.69703886     0.00200
Br693      Br  0.64391754  0.44245020  0.91431685     0.00700
Br694      Br  0.57213661  0.35157380  0.79136871    -0.03700
Br695      Br  0.70692044  0.28240929  0.77767299     0.00800
Br696      Br  0.62691004  0.43148962  0.76569519    -0.03000
Br697      Br  0.69051686  0.40830696  0.85364979    -0.03900
Br698      Br  0.52501576  0.38406574  0.85210303     0.00100
C699        C  0.41597786  0.40476682  0.88606706     0.01500
C700        C  0.42454187  0.37184135  0.87496594     0.04300
C701        C  0.40606857  0.35638067  0.84886635    -0.11700
C702        C  0.37844773  0.37356227  0.83442403     0.23600
C703        C  0.36777879  0.40496894  0.84813004    -0.12300
C704        C  0.38605285  0.42008329  0.87465885     0.05000
C705        C  0.36148005  0.35895159  0.80428586     0.27400
C706        C  0.37170079  0.36910480  0.77172199    -0.13000
C707        C  0.35780145  0.35345483  0.74297422     0.05500
C708        C  0.33280244  0.32835681  0.74655774    -0.09000
C709        C  0.32212075  0.31859004  0.77909267     0.06400
C710        C  0.33659063  0.33373307  0.80794995    -0.13300
Br711      Br  0.32859738  0.42742761  0.83014992    -0.05400
Br712      Br  0.45990737  0.34706622  0.89744160     0.00200
Br713      Br  0.37401838  0.36541238  0.69860803     0.00700
Br714      Br  0.32274674  0.31984169  0.85256111    -0.03700
Br715      Br  0.36922776  0.46051255  0.89684220     0.00800
Br716      Br  0.41876431  0.31181481  0.83268204    -0.03000
Br717      Br  0.40505177  0.40432778  0.76658831    -0.03900
Br718      Br  0.28803003  0.28419826  0.78396459     0.00100
C719        C  0.36166022  0.64191857  0.72250336     0.01500
C720        C  0.39556468  0.63140732  0.72086496     0.04300
C721        C  0.41015769  0.61416009  0.74841608    -0.11700
C722        C  0.39033605  0.60518297  0.77645965     0.23600
C723        C  0.35616200  0.61386343  0.77730436    -0.12300
C724        C  0.34210357  0.63318835  0.75105918     0.05000
C725        C  0.40541225  0.58802805  0.80606963     0.27400
C726        C  0.40842306  0.55236735  0.80673730    -0.13000
C727        C  0.42106677  0.53603451  0.83570088     0.05500
C728        C  0.42935425  0.55532313  0.86491075    -0.09000
C729        C  0.42644904  0.59130302  0.86382498     0.06400
C730        C  0.41494017  0.60750258  0.83430572    -0.13300
Br731      Br  0.32881252  0.59978078  0.81510088    -0.05400
Br732      Br  0.42173281  0.63908905  0.68052968     0.00200
Br733      Br  0.42703873  0.48722141  0.83422508     0.00700
Br734      Br  0.41264880  0.65665807  0.83195719    -0.03700
Br735      Br  0.29665348  0.64946421  0.75610207     0.00800
Br736      Br  0.45746067  0.60376445  0.74849352    -0.03000
Br737      Br  0.39477605  0.52597784  0.76784751    -0.03900
Br738      Br  0.44074304  0.61925374  0.90129808     0.00100
loop_ 
_geom_bond_atom_site_label_1 
_geom_bond_atom_site_label_2 
_geom_bond_distance 
_geom_bond_site_symmetry_2 
_ccdc_geom_bond_type 
O1          Zr13   2.414       .  S
O1            C3   1.281       .  A
O2          Zr39   2.452       .  S
O2            C3   1.292       .  A
C3          C699   1.472       .  S
O4          Zr16   2.449   1_554  S
O4            C6   1.288       .  A
O5          Zr40   2.410       .  S
O5            C6   1.284       .  A
C6          C619   1.473       .  S
O7          Zr16   2.463       .  S
O7            C9   1.292       .  A
O8          Zr39   2.400       .  S
O8            C9   1.282       .  A
C9          C728   1.485       .  S
O10         Zr13   2.431   1_554  S
O10          C12   1.285       .  A
O11         Zr40   2.417       .  S
O11          C12   1.285       .  A
C12         C639   1.472       .  S
Zr13         O14   2.432       .  S
Zr13         O15   2.434       .  S
Zr13         O19   2.375       .  S
Zr13         O20   2.370   1_556  S
Zr13         O43   2.367   1_556  S
Zr13         O45   2.376       .  S
O14          H57   0.990       .  S
O15          H56   0.990   1_556  S
O15          H60   0.990   1_556  S
Zr16         O17   2.435       .  S
Zr16         O18   2.431       .  S
Zr16         O20   2.372   1_556  S
Zr16         O19   2.367       .  S
Zr16         O44   2.372       .  S
Zr16         O46   2.379   1_556  S
O17          H58   0.990   1_556  S
O17          H61   0.990       .  S
O18          H51   0.990       .  S
O19         Zr39   2.376       .  S
O20         Zr40   2.380       .  S
O20          H47   0.960       .  S
O21         Zr33   2.448   1_554  S
O21          C23   1.289       .  A
O22         Zr40   2.415       .  S
O22          C23   1.284       .  A
C23         C579   1.477       .  S
O24         Zr36   2.449       .  S
O24          C26   1.290       .  A
O25         Zr39   2.430       .  S
O25          C26   1.288       .  A
C26         C659   1.485       .  S
O27         Zr36   2.461   1_554  S
O27          C29   1.292       .  A
O28         Zr40   2.409       .  S
O28          C29   1.283       .  A
C29         C599   1.483       .  S
O30         Zr33   2.449       .  S
O30          C32   1.289       .  A
O31         Zr39   2.417       .  S
O31          C32   1.285       .  A
C32         C688   1.484       .  S
Zr33         O34   2.436       .  S
Zr33         O35   2.434       .  S
Zr33         O41   2.374   1_556  S
Zr33         O42   2.369       .  S
Zr33         O45   2.378       .  S
Zr33         O43   2.376   1_556  S
O34          H54   0.990   1_556  S
O34          H59   0.990   1_556  S
O35          H55   0.990       .  S
Zr36         O37   2.432       .  S
Zr36         O38   2.434       .  S
Zr36         O42   2.374       .  S
Zr36         O41   2.368   1_556  S
Zr36         O46   2.370   1_556  S
Zr36         O44   2.370       .  S
O37          H53   0.990       .  S
O38          H52   0.990       .  S
O38          H62   0.990       .  S
Zr39         O42   2.379       .  S
Zr39         O44   2.388       .  S
Zr39         O45   2.383       .  S
Zr40         O41   2.380       .  S
Zr40         O43   2.378       .  S
Zr40         O46   2.379       .  S
O41          H49   0.956       .  S
O44          H48   0.967       .  S
O45          H50   0.953       .  S
O63         Zr75   2.449   1_565  S
O63          C65   1.289       .  A
O64        Zr101   2.435       .  S
O64          C65   1.289       .  A
C65         C568   1.485       .  S
O66         Zr78   2.438       .  S
O66          C68   1.287       .  A
O67        Zr102   2.413       .  S
O67          C68   1.285       .  A
C68         C479   1.469       .  S
O69         Zr78   2.460   1_565  S
O69          C71   1.291       .  A
O70        Zr101   2.439       .  S
O70          C71   1.289       .  A
C71         C548   1.493       .  S
O72         Zr75   2.464       .  S
O72          C74   1.293       .  A
O73        Zr102   2.394       .  S
O73          C74   1.280       .  A
C74         C459   1.483       .  S
Zr75         O76   2.431       .  S
Zr75         O77   2.435       .  S
Zr75         O81   2.381   1_545  S
Zr75         O82   2.371       .  S
Zr75        O105   2.368       .  S
Zr75        O107   2.372   1_545  S
O76         H119   0.990   1_545  S
O77         H118   0.990   1_545  S
O77         H122   0.990   1_545  S
Zr78         O79   2.437       .  S
Zr78         O80   2.433   1_545  S
Zr78         O82   2.379       .  S
Zr78         O81   2.371   1_545  S
Zr78        O106   2.370   1_545  S
Zr78        O108   2.379       .  S
O79         H120   0.990       .  S
O79         H123   0.990       .  S
O80         H113   0.989       .  S
O81        Zr101   2.380       .  S
O82        Zr102   2.388       .  S
O82         H109   0.964       .  S
O83         Zr95   2.419       .  S
O83          C85   1.282       .  A
O84        Zr102   2.449       .  S
O84          C85   1.290       .  A
C85         C439   1.474       .  S
O86         Zr98   2.426   1_565  S
O86          C88   1.285       .  A
O87        Zr101   2.424       .  S
O87          C88   1.288       .  A
C88         C519   1.469       .  S
O89         Zr98   2.469       .  S
O89          C91   1.293       .  A
O90        Zr102   2.402       .  S
O90          C91   1.281       .  A
C91         C419   1.490       .  S
O92         Zr95   2.427   1_565  S
O92          C94   1.285       .  A
O93        Zr101   2.435       .  S
O93          C94   1.289       .  A
C94         C499   1.480       .  S
Zr95         O96   2.434       .  S
Zr95         O97   2.432       .  S
Zr95        O103   2.370       .  S
Zr95        O104   2.361   1_545  S
Zr95        O107   2.375   1_545  S
Zr95        O105   2.374       .  S
O96         H116   0.990   1_545  S
O96         H121   0.990   1_545  S
O97         H117   0.990       .  S
Zr98         O99   2.435       .  S
Zr98        O100   2.432   1_545  S
Zr98        O104   2.379   1_545  S
Zr98        O103   2.367       .  S
Zr98        O108   2.360       .  S
Zr98        O106   2.384   1_545  S
O99         H115   0.990       .  S
O100        H114   0.989   1_565  S
O100        H124   0.990   1_565  S
Zr101       O104   2.383       .  S
Zr101       O106   2.390       .  S
Zr101       O107   2.384       .  S
Zr102       O103   2.375       .  S
Zr102       O105   2.375       .  S
Zr102       O108   2.379       .  S
O103        H111   0.964       .  S
O106        H110   0.967       .  S
O107        H112   0.963       .  S
O125       Zr137   2.449   1_655  S
O125        C127   1.289       .  A
O126       Zr163   2.429       .  S
O126        C127   1.288       .  A
C127        C408   1.483       .  S
O128       Zr140   2.446       .  S
O128        C130   1.288       .  A
O129       Zr164   2.430       .  S
O129        C130   1.288       .  A
C130        C328   1.481       .  S
O131       Zr140   2.453   1_655  S
O131        C133   1.289       .  A
O132       Zr163   2.432       .  S
O132        C133   1.288       .  A
C133        C379   1.491       .  S
O134       Zr137   2.458       .  S
O134        C136   1.291       .  A
O135       Zr164   2.404       .  S
O135        C136   1.283       .  A
C136        C299   1.480       .  S
Zr137       O138   2.430       .  S
Zr137       O139   2.435       .  S
Zr137       O143   2.380   1_455  S
Zr137       O144   2.378       .  S
Zr137       O167   2.363       .  S
Zr137       O169   2.371   1_455  S
O138        H181   0.990       .  S
O139        H180   0.990       .  S
O139        H184   0.990       .  S
Zr140       O141   2.434       .  S
Zr140       O142   2.431       .  S
Zr140       O144   2.372       .  S
Zr140       O143   2.374   1_455  S
Zr140       O168   2.369   1_455  S
Zr140       O170   2.378       .  S
O141        H182   0.991       .  S
O141        H185   0.990   1_455  S
O142        H175   0.990       .  S
O143       Zr163   2.380       .  S
O144       Zr164   2.386       .  S
O144        H171   0.963       .  S
O145       Zr157   2.425       .  S
O145        C147   1.284       .  A
O146       Zr164   2.418       .  S
O146        C147   1.286       .  A
C147        C288   1.463       .  S
O148       Zr160   2.424   1_655  S
O148        C150   1.285       .  A
O149       Zr163   2.423       .  S
O149        C150   1.287       .  A
C150        C359   1.468       .  S
O151       Zr160   2.465       .  S
O151        C153   1.292       .  A
O152       Zr164   2.430       .  S
O152        C153   1.287       .  A
C153        C259   1.494       .  S
O154       Zr157   2.448   1_655  S
O154        C156   1.289       .  A
O155       Zr163   2.427       .  S
O155        C156   1.287       .  A
C156        C339   1.487       .  S
Zr157       O158   2.435       .  S
Zr157       O159   2.433       .  S
Zr157       O165   2.377       .  S
Zr157       O166   2.364   1_455  S
Zr157       O169   2.369   1_455  S
Zr157       O167   2.377       .  S
O158        H178   0.990       .  S
O158        H183   0.990   1_455  S
O159        H179   0.990       .  S
Zr160       O161   2.434       .  S
Zr160       O162   2.434       .  S
Zr160       O166   2.380   1_455  S
Zr160       O165   2.363       .  S
Zr160       O170   2.365       .  S
Zr160       O168   2.384   1_455  S
O161        H177   0.990       .  S
O162        H176   0.990       .  S
O162        H186   0.990       .  S
Zr163       O166   2.384       .  S
Zr163       O168   2.389       .  S
Zr163       O169   2.385       .  S
Zr164       O165   2.381       .  S
Zr164       O167   2.383       .  S
Zr164       O170   2.373       .  S
O165        H173   0.961       .  S
O168        H172   0.966       .  S
O169        H174   0.965       .  S
C187        C388   1.494       .  S
C187        C188   1.407       .  A
C187        C192   1.408       .  A
C188        C189   1.404       .  A
C188        H193   1.084       .  S
C189        C588   1.481       .  S
C189        C190   1.400       .  A
C190        C191   1.402       .  A
C190        H194   1.084       .  S
C191        C488   1.481       .  S
C191        C192   1.406       .  A
C192        H195   1.084       .  S
C196        C399   1.490       .  S
C196        C197   1.407       .  A
C196        C201   1.404       .  A
C197        C198   1.407       .  A
C197        H202   1.084       .  S
C198        C608   1.484       .  S
C198        C199   1.406       .  A
C199        C200   1.405       .  A
C199        H203   1.084       .  S
C200        C539   1.489       .  S
C200        C201   1.404       .  A
C201        H204   1.084       .  S
C205        C679   1.483       .  S
C205        C206   1.404       .  A
C205        C210   1.405       .  A
C206        C207   1.404       .  A
C206        H211   1.084       .  S
C207        C428   1.486       .  S
C207        C208   1.405       .  A
C208        C209   1.402       .  A
C208        H212   1.084       .  S
C209        C368   1.483       .  S
C209        C210   1.403       .  A
C210        H213   1.084       .  S
C214        C559   1.484       .  S
C214        C215   1.403       .  A
C214        C219   1.405       .  A
C215        C216   1.404       .  A
C215        H220   1.084       .  S
C216        C308   1.484       .  S
C216        C217   1.403       .  A
C217        C218   1.404       .  A
C217        H221   1.084       .  S
C218        C628   1.486       .  S
C218        C219   1.406       .  A
C219        H222   1.084       .  S
C223        C719   1.483       .  S
C223        C224   1.406       .  A
C223        C228   1.401       .  A
C224        C225   1.404       .  A
C224        H229   1.084       .  S
C225        C508   1.477       .  S
C225        C226   1.400       .  A
C226        C227   1.396       .  A
C226        H230   1.084       .  S
C227        C279   1.465       .  S
C227        C228   1.396       .  A
C228        H231   1.084       .  S
C232        C708   1.481       .  S
C232        C233   1.403       .  A
C232        C237   1.403       .  A
C233        C234   1.404       .  A
C233        H238   1.084       .  S
C234        C448   1.484       .  S
C234        C235   1.407       .  A
C235        C236   1.407       .  A
C235        H239   1.084       .  S
C236        C268   1.491       .  S
C236        C237   1.405       .  A
C237        H240   1.084       .  S
C241        C668   1.481       .  S
C241        C242   1.403       .  A
C241        C246   1.402       .  A
C242        C243   1.401       .  A
C242        H247   1.084       .  S
C243        C528   1.479       .  S
C243        C244   1.402       .  A
C244        C245   1.402       .  A
C244        H248   1.084       .  S
C245        C348   1.484       .  S
C245        C246   1.402       .  A
C246        H249   1.084       .  S
C250        C468   1.482       .  S
C250        C251   1.402       .  A
C250        C255   1.404       .  A
C251        C252   1.400       .  A
C251        H256   1.084       .  S
C252        C648   1.478       .  S
C252        C253   1.400       .  A
C253        C254   1.401       .  A
C253        H257   1.084       .  S
C254        C319   1.478       .  S
C254        C255   1.402       .  A
C255        H258   1.084       .  S
C259        C260   1.417       .  A
C259        C264   1.417       .  A
C260        C261   1.412       .  A
C260       Br272   1.930       .  S
C261        C262   1.409       .  A
C261       Br276   1.930       .  S
C262        C265   1.489       .  S
C262        C263   1.405       .  A
C263        C264   1.408       .  A
C263       Br271   1.934       .  S
C264       Br275   1.922       .  S
C265        C266   1.409       .  A
C265        C270   1.408       .  A
C266        C267   1.409       .  A
C266       Br277   1.932       .  S
C267        C268   1.416       .  A
C267       Br273   1.929       .  S
C268        C269   1.413       .  A
C269        C270   1.409       .  A
C269       Br278   1.930       .  S
C270       Br274   1.929       .  S
C279        C280   1.406       .  A
C279        C284   1.409       .  A
C280        C281   1.400       .  A
C280       Br292   1.928       .  S
C281        C282   1.407       .  A
C281       Br296   1.932       .  S
C282        C285   1.469       .  S
C282        C283   1.406       .  A
C283        C284   1.402       .  A
C283       Br291   1.929       .  S
C284       Br295   1.928       .  S
C285        C286   1.408       .  A
C285        C290   1.406       .  A
C286        C287   1.405       .  A
C286       Br297   1.929       .  S
C287        C288   1.409       .  A
C287       Br293   1.930       .  S
C288        C289   1.406       .  A
C289        C290   1.398       .  A
C289       Br298   1.924       .  S
C290       Br294   1.932       .  S
C299        C300   1.415       .  A
C299        C304   1.416       .  A
C300        C301   1.405       .  A
C300       Br312   1.930       .  S
C301        C302   1.406       .  A
C301       Br316   1.932       .  S
C302        C305   1.478       .  S
C302        C303   1.407       .  A
C303        C304   1.405       .  A
C303       Br311   1.934       .  S
C304       Br315   1.930       .  S
C305        C306   1.408       .  A
C305        C310   1.406       .  A
C306        C307   1.406       .  A
C306       Br317   1.932       .  S
C307        C308   1.413       .  A
C307       Br313   1.930       .  S
C308        C309   1.413       .  A
C309        C310   1.404       .  A
C309       Br318   1.926       .  S
C310       Br314   1.933       .  S
C319        C320   1.411       .  A
C319        C324   1.410       .  A
C320        C321   1.406       .  A
C320       Br332   1.931       .  S
C321        C322   1.409       .  A
C321       Br336   1.929       .  S
C322        C325   1.484       .  S
C322        C323   1.410       .  A
C323        C324   1.406       .  A
C323       Br331   1.930       .  S
C324       Br335   1.931       .  S
C325        C326   1.407       .  A
C325        C330   1.409       .  A
C326        C327   1.408       .  A
C326       Br337   1.930       .  S
C327        C328   1.414       .  A
C327       Br333   1.930       .  S
C328        C329   1.412       .  A
C329        C330   1.408       .  A
C329       Br338   1.928       .  S
C330       Br334   1.931       .  S
C339        C340   1.416       .  A
C339        C344   1.416       .  A
C340        C341   1.406       .  A
C340       Br352   1.925       .  S
C341        C342   1.407       .  A
C341       Br356   1.933       .  S
C342        C345   1.483       .  S
C342        C343   1.407       .  A
C343        C344   1.409       .  A
C343       Br351   1.931       .  S
C344       Br355   1.930       .  S
C345        C346   1.408       .  A
C345        C350   1.409       .  A
C346        C347   1.404       .  A
C346       Br357   1.933       .  S
C347        C348   1.414       .  A
C347       Br353   1.933       .  S
C348        C349   1.414       .  A
C349        C350   1.409       .  A
C349       Br358   1.932       .  S
C350       Br354   1.929       .  S
C359        C360   1.409       .  A
C359        C364   1.411       .  A
C360        C361   1.404       .  A
C360       Br372   1.931       .  S
C361        C362   1.409       .  A
C361       Br376   1.929       .  S
C362        C365   1.478       .  S
C362        C363   1.407       .  A
C363        C364   1.404       .  A
C363       Br371   1.929       .  S
C364       Br375   1.933       .  S
C365        C366   1.405       .  A
C365        C370   1.408       .  A
C366        C367   1.404       .  A
C366       Br377   1.934       .  S
C367        C368   1.414       .  A
C367       Br373   1.922       .  S
C368        C369   1.411       .  A
C369        C370   1.407       .  A
C369       Br378   1.929       .  S
C370       Br374   1.929       .  S
C379        C380   1.416       .  A
C379        C384   1.416       .  A
C380        C381   1.409       .  A
C380       Br392   1.928       .  S
C381        C382   1.407       .  A
C381       Br396   1.931       .  S
C382        C385   1.488       .  S
C382        C383   1.408       .  A
C383        C384   1.410       .  A
C383       Br391   1.930       .  S
C384       Br395   1.926       .  S
C385        C386   1.407       .  A
C385        C390   1.408       .  A
C386        C387   1.410       .  A
C386       Br397   1.929       .  S
C387        C388   1.416       .  A
C387       Br393   1.927       .  S
C388        C389   1.415       .  A
C389        C390   1.409       .  A
C389       Br398   1.927       .  S
C390       Br394   1.933       .  S
C399        C400   1.414       .  A
C399        C404   1.414       .  A
C400        C401   1.410       .  A
C400       Br412   1.930       .  S
C401        C402   1.409       .  A
C401       Br416   1.928       .  S
C402        C405   1.488       .  S
C402        C403   1.408       .  A
C403        C404   1.407       .  A
C403       Br411   1.931       .  S
C404       Br415   1.926       .  S
C405        C406   1.408       .  A
C405        C410   1.410       .  A
C406        C407   1.408       .  A
C406       Br417   1.930       .  S
C407        C408   1.413       .  A
C407       Br413   1.930       .  S
C408        C409   1.413       .  A
C409        C410   1.410       .  A
C409       Br418   1.930       .  S
C410       Br414   1.930       .  S
C419        C420   1.420       .  A
C419        C424   1.415       .  A
C420        C421   1.406       .  A
C420       Br432   1.930       .  S
C421        C422   1.406       .  A
C421       Br436   1.935       .  S
C422        C425   1.483       .  S
C422        C423   1.407       .  A
C423        C424   1.408       .  A
C423       Br431   1.931       .  S
C424       Br435   1.927       .  S
C425        C426   1.408       .  A
C425        C430   1.409       .  A
C426        C427   1.405       .  A
C426       Br437   1.931       .  S
C427        C428   1.414       .  A
C427       Br433   1.932       .  S
C428        C429   1.414       .  A
C429        C430   1.408       .  A
C429       Br438   1.929       .  S
C430       Br434   1.931       .  S
C439        C440   1.409       .  A
C439        C444   1.409       .  A
C440        C441   1.408       .  A
C440       Br452   1.933       .  S
C441        C442   1.410       .  A
C441       Br456   1.928       .  S
C442        C445   1.489       .  S
C442        C443   1.411       .  A
C443        C444   1.409       .  A
C443       Br451   1.928       .  S
C444       Br455   1.929       .  S
C445        C446   1.408       .  A
C445        C450   1.411       .  A
C446        C447   1.407       .  A
C446       Br457   1.928       .  S
C447        C448   1.410       .  A
C447       Br453   1.931       .  S
C448        C449   1.412       .  A
C449        C450   1.412       .  A
C449       Br458   1.928       .  S
C450       Br454   1.930       .  S
C459        C460   1.420       .  A
C459        C464   1.415       .  A
C460        C461   1.405       .  A
C460       Br472   1.931       .  S
C461        C462   1.406       .  A
C461       Br476   1.935       .  S
C462        C465   1.477       .  S
C462        C463   1.404       .  A
C463        C464   1.405       .  A
C463       Br471   1.930       .  S
C464       Br475   1.930       .  S
C465        C466   1.407       .  A
C465        C470   1.406       .  A
C466        C467   1.405       .  A
C466       Br477   1.930       .  S
C467        C468   1.414       .  A
C467       Br473   1.931       .  S
C468        C469   1.415       .  A
C469        C470   1.404       .  A
C469       Br478   1.932       .  S
C470       Br474   1.932       .  S
C479        C480   1.409       .  A
C479        C484   1.408       .  A
C480        C481   1.407       .  A
C480       Br492   1.929       .  S
C481        C482   1.410       .  A
C481       Br496   1.929       .  S
C482        C485   1.482       .  S
C482        C483   1.409       .  A
C483        C484   1.403       .  A
C483       Br491   1.930       .  S
C484       Br495   1.930       .  S
C485        C486   1.408       .  A
C485        C490   1.409       .  A
C486        C487   1.406       .  A
C486       Br497   1.932       .  S
C487        C488   1.411       .  A
C487       Br493   1.927       .  S
C488        C489   1.411       .  A
C489        C490   1.408       .  A
C489       Br498   1.928       .  S
C490       Br494   1.930       .  S
C499        C500   1.413       .  A
C499        C504   1.418       .  A
C500        C501   1.404       .  A
C500       Br512   1.927       .  S
C501        C502   1.405       .  A
C501       Br516   1.932       .  S
C502        C505   1.474       .  S
C502        C503   1.405       .  A
C503        C504   1.406       .  A
C503       Br511   1.933       .  S
C504       Br515   1.930       .  S
C505        C506   1.406       .  A
C505        C510   1.408       .  A
C506        C507   1.400       .  A
C506       Br517   1.934       .  S
C507        C508   1.412       .  A
C507       Br513   1.930       .  S
C508        C509   1.412       .  A
C509        C510   1.407       .  A
C509       Br518   1.930       .  S
C510       Br514   1.929       .  S
C519        C520   1.412       .  A
C519        C524   1.408       .  A
C520        C521   1.405       .  A
C520       Br532   1.931       .  S
C521        C522   1.408       .  A
C521       Br536   1.930       .  S
C522        C525   1.480       .  S
C522        C523   1.409       .  A
C523        C524   1.403       .  A
C523       Br531   1.930       .  S
C524       Br535   1.929       .  S
C525        C526   1.408       .  A
C525        C530   1.409       .  A
C526        C527   1.405       .  A
C526       Br537   1.930       .  S
C527        C528   1.410       .  A
C527       Br533   1.929       .  S
C528        C529   1.412       .  A
C529        C530   1.406       .  A
C529       Br538   1.931       .  S
C530       Br534   1.932       .  S
C539        C540   1.413       .  A
C539        C544   1.413       .  A
C540        C541   1.411       .  A
C540       Br552   1.930       .  S
C541        C542   1.411       .  A
C541       Br556   1.929       .  S
C542        C545   1.493       .  S
C542        C543   1.409       .  A
C543        C544   1.409       .  A
C543       Br551   1.929       .  S
C544       Br555   1.931       .  S
C545        C546   1.410       .  A
C545        C550   1.407       .  A
C546        C547   1.414       .  A
C546       Br557   1.929       .  S
C547        C548   1.415       .  A
C547       Br553   1.929       .  S
C548        C549   1.414       .  A
C549        C550   1.409       .  A
C549       Br558   1.921       .  S
C550       Br554   1.932       .  S
C559        C560   1.411       .  A
C559        C564   1.411       .  A
C560        C561   1.409       .  A
C560       Br572   1.927       .  S
C561        C562   1.410       .  A
C561       Br576   1.930       .  S
C562        C565   1.486       .  S
C562        C563   1.407       .  A
C563        C564   1.406       .  A
C563       Br571   1.929       .  S
C564       Br575   1.926       .  S
C565        C566   1.408       .  A
C565        C570   1.408       .  A
C566        C567   1.408       .  A
C566       Br577   1.930       .  S
C567        C568   1.413       .  A
C567       Br573   1.928       .  S
C568        C569   1.415       .  A
C569        C570   1.409       .  A
C569       Br578   1.930       .  S
C570       Br574   1.931       .  S
C579        C580   1.413       .  A
C579        C584   1.412       .  A
C580        C581   1.406       .  A
C580       Br592   1.925       .  S
C581        C582   1.407       .  A
C581       Br596   1.932       .  S
C582        C585   1.481       .  S
C582        C583   1.408       .  A
C583        C584   1.406       .  A
C583       Br591   1.930       .  S
C584       Br595   1.932       .  S
C585        C586   1.407       .  A
C585        C590   1.410       .  A
C586        C587   1.404       .  A
C586       Br597   1.931       .  S
C587        C588   1.410       .  A
C587       Br593   1.926       .  S
C588        C589   1.411       .  A
C589        C590   1.408       .  A
C589       Br598   1.928       .  S
C590       Br594   1.930       .  S
C599        C600   1.415       .  A
C599        C604   1.413       .  A
C600        C601   1.406       .  A
C600       Br612   1.924       .  S
C601        C602   1.407       .  A
C601       Br616   1.933       .  S
C602        C605   1.485       .  S
C602        C603   1.409       .  A
C603        C604   1.408       .  A
C603       Br611   1.930       .  S
C604       Br615   1.931       .  S
C605        C606   1.409       .  A
C605        C610   1.410       .  A
C606        C607   1.408       .  A
C606       Br617   1.931       .  S
C607        C608   1.410       .  A
C607       Br613   1.927       .  S
C608        C609   1.411       .  A
C609        C610   1.408       .  A
C609       Br618   1.926       .  S
C610       Br614   1.932       .  S
C619        C620   1.409       .  A
C619        C624   1.408       .  A
C620        C621   1.409       .  A
C620       Br632   1.931       .  S
C621        C622   1.410       .  A
C621       Br636   1.926       .  S
C622        C625   1.483       .  S
C622        C623   1.408       .  A
C623        C624   1.403       .  A
C623       Br631   1.931       .  S
C624       Br635   1.922       .  S
C625        C626   1.408       .  A
C625        C630   1.407       .  A
C626        C627   1.407       .  A
C626       Br637   1.931       .  S
C627        C628   1.413       .  A
C627       Br633   1.928       .  S
C628        C629   1.414       .  A
C629        C630   1.409       .  A
C629       Br638   1.930       .  S
C630       Br634   1.929       .  S
C639        C640   1.411       .  A
C639        C644   1.414       .  A
C640        C641   1.403       .  A
C640       Br652   1.928       .  S
C641        C642   1.407       .  A
C641       Br656   1.932       .  S
C642        C645   1.474       .  S
C642        C643   1.406       .  A
C643        C644   1.403       .  A
C643       Br651   1.931       .  S
C644       Br655   1.932       .  S
C645        C646   1.407       .  A
C645        C650   1.406       .  A
C646        C647   1.404       .  A
C646       Br657   1.931       .  S
C647        C648   1.411       .  A
C647       Br653   1.930       .  S
C648        C649   1.414       .  A
C649        C650   1.404       .  A
C649       Br658   1.931       .  S
C650       Br654   1.932       .  S
C659        C660   1.414       .  A
C659        C664   1.414       .  A
C660        C661   1.409       .  A
C660       Br672   1.926       .  S
C661        C662   1.408       .  A
C661       Br676   1.931       .  S
C662        C665   1.484       .  S
C662        C663   1.406       .  A
C663        C664   1.407       .  A
C663       Br671   1.931       .  S
C664       Br675   1.927       .  S
C665        C666   1.408       .  A
C665        C670   1.409       .  A
C666        C667   1.407       .  A
C666       Br677   1.929       .  S
C667        C668   1.414       .  A
C667       Br673   1.933       .  S
C668        C669   1.411       .  A
C669        C670   1.405       .  A
C669       Br678   1.932       .  S
C670       Br674   1.931       .  S
C679        C680   1.411       .  A
C679        C684   1.412       .  A
C680        C681   1.403       .  A
C680       Br692   1.923       .  S
C681        C682   1.407       .  A
C681       Br696   1.932       .  S
C682        C685   1.483       .  S
C682        C683   1.409       .  A
C683        C684   1.409       .  A
C683       Br691   1.929       .  S
C684       Br695   1.928       .  S
C685        C686   1.407       .  A
C685        C690   1.408       .  A
C686        C687   1.408       .  A
C686       Br697   1.930       .  S
C687        C688   1.415       .  A
C687       Br693   1.929       .  S
C688        C689   1.414       .  A
C689        C690   1.406       .  A
C689       Br698   1.925       .  S
C690       Br694   1.933       .  S
C699        C700   1.406       .  A
C699        C704   1.409       .  A
C700        C701   1.406       .  A
C700       Br712   1.928       .  S
C701        C702   1.410       .  A
C701       Br716   1.928       .  S
C702        C705   1.486       .  S
C702        C703   1.411       .  A
C703        C704   1.408       .  A
C703       Br711   1.927       .  S
C704       Br715   1.932       .  S
C705        C706   1.409       .  A
C705        C710   1.410       .  A
C706        C707   1.406       .  A
C706       Br717   1.931       .  S
C707        C708   1.410       .  A
C707       Br713   1.929       .  S
C708        C709   1.409       .  A
C709        C710   1.410       .  A
C709       Br718   1.927       .  S
C710       Br714   1.928       .  S
C719        C720   1.414       .  A
C719        C724   1.416       .  A
C720        C721   1.408       .  A
C720       Br732   1.931       .  S
C721        C722   1.408       .  A
C721       Br736   1.929       .  S
C722        C725   1.477       .  S
C722        C723   1.404       .  A
C723        C724   1.401       .  A
C723       Br731   1.933       .  S
C724       Br735   1.931       .  S
C725        C726   1.404       .  A
C725        C730   1.405       .  A
C726        C727   1.405       .  A
C726       Br737   1.932       .  S
C727        C728   1.420       .  A
C727       Br733   1.930       .  S
C728        C729   1.417       .  A
C729        C730   1.406       .  A
C729       Br738   1.930       .  S
C730       Br734   1.932       .  S
