geometry optimzed in LAMMPS
_audit_creation_date              2020-12-01 
_audit_creation_method            'lammps2cif' 
_symmetry_space_group_name_H-M    'P1' 
_symmetry_Int_Tables_number       1 
_symmetry_cell_setting            triclinic 
loop_ 
_symmetry_equiv_pos_as_xyz 
  x,y,z 
_cell_length_a                    41.39070964 
_cell_length_b                    40.48681876909755 
_cell_length_c                    41.95640817302035 
_cell_angle_alpha                 90.80848700901939 
_cell_angle_beta                  90.06745997764413 
_cell_angle_gamma                 89.93155404035265 
loop_ 
_atom_site_label 
_atom_site_type_symbol 
_atom_site_fract_x 
_atom_site_fract_y 
_atom_site_fract_z 
_atom_site_charge 
O1          O  0.22927668  0.29991106  0.44609850    -0.78400
O2          O  0.29144685  0.26888151  0.06773370    -0.78400
O3          O  0.19985600  0.27654168  0.02386414    -0.78400
O4          O  0.33406278  0.27342089  0.46214985    -0.78400
O5          O  0.24785327  0.30027624  0.02900297    -0.78500
O6          O  0.29442576  0.30671032  0.45027253    -0.78400
O7          O  0.31816997  0.27361073  0.02282013    -0.78400
O8          O  0.19512518  0.26012705  0.45100174    -0.78400
C9          C  0.20259344  0.28738872  0.43869678     1.11300
C10         C  0.31587084  0.27953430  0.05311816     1.11200
C11         C  0.21793070  0.29970991  0.03512825     1.11300
C12         C  0.32416035  0.29997966  0.44977229     1.11200
O13         O  0.30216338  0.24155442  0.42176031    -0.78400
O14         O  0.23520805  0.23758763  0.05699753    -0.78500
O15         O  0.22862126  0.20030902  0.46505934    -0.78400
O16         O  0.33740405  0.21116352  0.00956571    -0.78400
O17         O  0.28976705  0.21043707  0.03396352    -0.78400
O18         O  0.23826300  0.23123524  0.42261808    -0.78400
O19         O  0.30717443  0.20634333  0.46006626    -0.78400
O20         O  0.21436280  0.20544479  0.02055799    -0.78400
Co21       Co  0.26570931  0.26972443  0.43896767     1.51500
Co22       Co  0.26960536  0.25716374  0.02901057     1.51700
Co23       Co  0.20731988  0.24146186  0.98907968     1.51600
Co24       Co  0.31287057  0.24161458  0.49253205     1.51500
O25         O  0.26388170  0.25479440  0.48605871    -1.40300
C26         C  0.30978081  0.21305027  0.43112801     1.11200
C27         C  0.21902522  0.21211897  0.04970545     1.11300
C28         C  0.22930169  0.20397142  0.43508745     1.11200
C29         C  0.31879676  0.19930059  0.03071553     1.11200
O30         O  0.30282521  0.42455695  0.21558116    -0.78400
O31         O  0.30698360  0.05383993  0.24459164    -0.78400
O32         O  0.29197292  0.04226821  0.17624063    -0.78400
O33         O  0.28672969  0.47051939  0.30354127    -0.78400
O34         O  0.27475371  0.08856047  0.20046379    -0.78500
O35         O  0.31765729  0.47145524  0.26053565    -0.78400
O36         O  0.28984382  0.04376536  0.29339902    -0.78400
O37         O  0.29863998  0.46971892  0.18676138    -0.78400
C38         C  0.31081661  0.44069943  0.19133896     1.11300
C39         C  0.30973179  0.05744321  0.27452426     1.11200
C40         C  0.29259054  0.07416281  0.17983224     1.11300
C41         C  0.31408582  0.46593617  0.28998659     1.11200
O42         O  0.26313142  0.42937340  0.26506690    -0.78400
O43         O  0.21993506  0.05212213  0.20152388    -0.78500
O44         O  0.23977247  0.47312650  0.16075009    -0.78400
O45         O  0.22111547  0.03667841  0.28629252    -0.78400
O46         O  0.24306130  0.07634958  0.25759952    -0.78400
O47         O  0.24100073  0.44355038  0.20497332    -0.78400
O48         O  0.22135705  0.45938809  0.27709618    -0.78400
O49         O  0.23545819  0.02875602  0.15821665    -0.78400
Co50       Co  0.28049731  0.46090684  0.23297845     1.51500
Co51       Co  0.26419027  0.05017731  0.22323792     1.51700
Co52       Co  0.26066353  0.00453045  0.18904768     1.51600
Co53       Co  0.25783141  0.00621196  0.28790561     1.51500
O54         O  0.26117095  0.00560136  0.23928918    -1.40300
C55         C  0.23510227  0.43159000  0.27659527     1.11200
C56         C  0.21726755  0.04890354  0.17141568     1.11300
C57         C  0.23227461  0.44704750  0.17539609     1.11200
C58         C  0.22263250  0.06642875  0.27779291     1.11200
O59         O  0.44676862  0.25958519  0.21259922    -0.78400
O60         O  0.07762145  0.20087577  0.26665271    -0.78400
O61         O  0.03870705  0.21307163  0.17501671    -0.78400
O62         O  0.48896741  0.20811972  0.29119759    -0.78400
O63         O  0.03492051  0.18592772  0.21951887    -0.78500
O64         O  0.45250283  0.23568988  0.26587845    -0.78400
O65         O  0.04311493  0.22734933  0.29994512    -0.78400
O66         O  0.47728785  0.21792448  0.19665568    -0.78400
C67         C  0.44985652  0.23166493  0.19869318     1.11300
C68         C  0.06730869  0.20708807  0.29472536     1.11200
C69         C  0.04357600  0.18689337  0.19056887     1.11300
C70         C  0.46067655  0.21026851  0.28068473     1.11200
O71         O  0.44318497  0.30045767  0.26785231    -0.78400
O72         O  0.08179059  0.23761942  0.21013823    -0.78500
O73         O  0.49212070  0.28437934  0.18022672    -0.78400
O74         O  0.03443347  0.29791917  0.27940004    -0.78400
O75         O  0.07240301  0.26512721  0.26327070    -0.78400
O76         O  0.49094352  0.31373311  0.22452409    -0.78400
O77         O  0.47650338  0.27971180  0.30478716    -0.78400
O78         O  0.05475127  0.28004303  0.19169441    -0.78400
Co79       Co  0.47584453  0.27495575  0.24827840     1.51500
Co80       Co  0.04884327  0.22595070  0.24354567     1.51700
Co81       Co  0.01434996  0.25496870  0.18397865     1.51600
Co82       Co  0.00614381  0.25923672  0.28246071     1.51500
O83         O  0.00970326  0.25060412  0.23332142    -1.40300
C84         C  0.45155602  0.29775108  0.29696443     1.11200
C85         C  0.08121104  0.26491252  0.19553760     1.11300
C86         C  0.48518398  0.31105763  0.19495556     1.11200
C87         C  0.06376769  0.29241966  0.27517391     1.11200
C88         C  0.39696621  0.17609369  0.14639012     0.04900
C89         C  0.37448493  0.15877432  0.16463534    -0.11300
C90         C  0.34909884  0.14175231  0.14971752     0.02400
C91         C  0.34523681  0.14374173  0.11643607    -0.09800
C92         C  0.36644641  0.16318213  0.09820533     0.04900
C93         C  0.39315866  0.17773317  0.11333285    -0.09200
H94         H  0.37741180  0.15764756  0.19032343     0.10500
H95         H  0.32512631  0.13126521  0.10536174     0.08000
H96         H  0.41004354  0.19237640  0.09964310     0.07800
C97         C  0.41308607  0.34010401  0.14428553     0.04900
C98         C  0.39289268  0.32281241  0.12231656    -0.11300
C99         C  0.36061714  0.33286454  0.11719753     0.02400
C100        C  0.34902144  0.36086911  0.13351305    -0.09800
C101        C  0.36885220  0.37861218  0.15478719     0.04900
C102        C  0.40069469  0.36842218  0.15977863    -0.09200
H103        H  0.40145916  0.30016305  0.11110570     0.10500
H104        H  0.32377311  0.36761604  0.13121951     0.08000
H105        H  0.41502243  0.38211578  0.17722697     0.07800
C106        C  0.35659503  0.17220286  0.36190614     0.04900
C107        C  0.34042887  0.14344979  0.35161460    -0.11300
C108        C  0.35381607  0.12253994  0.32791483     0.02400
C109        C  0.38460484  0.13036052  0.31530478    -0.09800
C110        C  0.40144785  0.15857077  0.32649995     0.04900
C111        C  0.38706512  0.17929904  0.34943495    -0.09200
H112        H  0.31669227  0.13826180  0.36078418     0.10500
H113        H  0.39563255  0.11465745  0.29727741     0.08000
H114        H  0.39957253  0.20151318  0.35727578     0.07800
C115        C  0.18371399  0.36753711  0.15666165     0.04900
C116        C  0.19125272  0.35600259  0.12556294    -0.11300
C117        C  0.17449460  0.32869057  0.11199322     0.02400
C118        C  0.15022871  0.31353968  0.13010606    -0.09800
C119        C  0.14233362  0.32518546  0.16069377     0.04900
C120        C  0.15906295  0.35207990  0.17380788    -0.09200
H121        H  0.21077480  0.36762855  0.11268666     0.10500
H122        H  0.13693372  0.29272708  0.12008373     0.08000
H123        H  0.15297081  0.36088427  0.19732274     0.07800
C124        C  0.17922901  0.33262166  0.36096321     0.04900
C125        C  0.19094838  0.36062612  0.34523425    -0.11300
C126        C  0.17640131  0.37169265  0.31697602     0.02400
C127        C  0.14982179  0.35458047  0.30429004    -0.09800
C128        C  0.13890978  0.32550297  0.31859242     0.04900
C129        C  0.15371525  0.31463124  0.34681121    -0.09200
H130        H  0.21132991  0.37416535  0.35516455     0.10500
H131        H  0.13904770  0.36279824  0.28220131     0.08000
H132        H  0.14560954  0.29184280  0.35715206     0.07800
C133        C  0.17507380  0.16336032  0.37182196     0.04900
C134        C  0.18895300  0.13323678  0.36206226    -0.11300
C135        C  0.17374412  0.11375023  0.33878533     0.02400
C136        C  0.14391987  0.12321167  0.32635788    -0.09800
C137        C  0.12957860  0.15307701  0.33576693     0.04900
C138        C  0.14531440  0.17314100  0.35862737    -0.09200
H139        H  0.21283588  0.12635371  0.37027125     0.10500
H140        H  0.13312138  0.10836528  0.30761004     0.08000
H141        H  0.13564213  0.19715066  0.36499029     0.07800
C142        C  0.35427489  0.35978713  0.38522105     0.04900
C143        C  0.37822690  0.34323323  0.36695502    -0.11300
C144        C  0.38985936  0.35723518  0.33844523     0.02400
C145        C  0.37747327  0.38800185  0.32884049    -0.09800
C146        C  0.35360696  0.40464340  0.34677534     0.04900
C147        C  0.34286735  0.39054113  0.37512218    -0.09200
H148        H  0.38581311  0.31858679  0.37342959     0.10500
H149        H  0.38541306  0.39763697  0.30648822     0.08000
H150        H  0.32385163  0.40250899  0.38838082     0.07800
C151        C  0.16154730  0.11885274  0.14445784     0.04900
C152        C  0.13094007  0.12966731  0.15462147    -0.11300
C153        C  0.11457632  0.15476134  0.13841331     0.02400
C154        C  0.12967352  0.16901771  0.11168845    -0.09800
C155        C  0.16094012  0.15965064  0.10186027     0.04900
C156        C  0.17670106  0.13414381  0.11829212    -0.09200
H157        H  0.12028806  0.11855180  0.17533685     0.10500
H158        H  0.11753411  0.18868753  0.09912273     0.08000
H159        H  0.20079235  0.12666714  0.11108087     0.07800
C160        C  0.10209039  0.16469872  0.31626404    -0.14700
C161        C  0.08498367  0.19247531  0.32156835    -0.29900
H162        H  0.09787150  0.15124361  0.29411784     0.14300
H163        H  0.08627490  0.20592264  0.34395449     0.14900
C164        C  0.08832401  0.31588919  0.28710497    -0.14700
C165        C  0.11409270  0.30429169  0.30313489    -0.29800
H166        H  0.08367698  0.34224202  0.28599284     0.14300
H167        H  0.11612250  0.27782640  0.30676794     0.14900
C168        C  0.11107022  0.27835819  0.18180915    -0.14700
C169        C  0.11483758  0.31105173  0.17825311    -0.29900
H170        H  0.12970331  0.26148040  0.17407708     0.14300
H171        H  0.09740704  0.32790344  0.18846594     0.14900
C172        C  0.06694909  0.16222022  0.17704429    -0.14700
C173        C  0.08313379  0.16922818  0.14969796    -0.29900
H174        H  0.07447715  0.14204565  0.19200958     0.14300
H175        H  0.07450860  0.18985516  0.13576667     0.14900
C176        C  0.43223662  0.31475793  0.32237477    -0.14700
C177        C  0.41112718  0.33902825  0.31527235    -0.29900
H178        H  0.43590183  0.30768892  0.34700051     0.14300
H179        H  0.40964234  0.34672809  0.29059082     0.14900
C180        C  0.43352468  0.16855880  0.31405048    -0.14700
C181        C  0.43539885  0.18514635  0.28663213    -0.29900
H182        H  0.45321240  0.17077808  0.33107684     0.14300
H183        H  0.41411956  0.18587400  0.27145591     0.14900
C184        C  0.42484802  0.19253896  0.16137255    -0.14700
C185        C  0.42144475  0.21498963  0.18495694    -0.29900
H186        H  0.44854733  0.18781797  0.15111063     0.14300
H187        H  0.39751524  0.22199627  0.19329387     0.14900
C188        C  0.46288681  0.33469607  0.17946487    -0.14700
C189        C  0.44477963  0.32515218  0.15382090    -0.29900
H190        H  0.45716561  0.35713710  0.19306367     0.14300
H191        H  0.45111043  0.30201636  0.14161954     0.14900
C192        C  0.33385926  0.09371146  0.31671775    -0.14700
C193        C  0.33522989  0.08025984  0.28708709    -0.29900
H194        H  0.31459273  0.08585819  0.33232437     0.14300
H195        H  0.35289719  0.08923823  0.27033049     0.14900
C196        C  0.19169563  0.08697538  0.32316381    -0.14700
C197        C  0.20113432  0.09044551  0.29283984    -0.29900
H198        H  0.20018880  0.06642511  0.33733197     0.14300
H199        H  0.19526311  0.11282402  0.27998665     0.14900
C200        C  0.19623450  0.06954152  0.15142578    -0.14700
C201        C  0.17837952  0.09394779  0.16397761    -0.29900
H202        H  0.19781823  0.06652170  0.12578627     0.14300
H203        H  0.17592706  0.09587315  0.18968041     0.14900
C204        C  0.32588390  0.12323847  0.16938435    -0.14700
C205        C  0.31512590  0.09329654  0.16040554    -0.29900
H206        H  0.31893333  0.13367410  0.19262723     0.14300
H207        H  0.32450965  0.08156447  0.13859000     0.14900
C208        C  0.18925104  0.40083930  0.30020374    -0.14700
C209        C  0.22049097  0.40247534  0.29174540    -0.29900
H210        H  0.17259431  0.42039214  0.29350396     0.14300
H211        H  0.23629756  0.38157224  0.29656831     0.14900
C212        C  0.34040387  0.44843583  0.30667347    -0.14700
C213        C  0.33483248  0.43338449  0.33457429    -0.29900
H214        H  0.36200142  0.44373229  0.29350305     0.14300
H215        H  0.31295379  0.43946759  0.34712397     0.14900
C216        C  0.33292820  0.42568697  0.16790255    -0.14700
C217        C  0.35448193  0.40297968  0.17704942    -0.29900
H218        H  0.32904962  0.43044285  0.14285455     0.14300
H219        H  0.35959504  0.40002878  0.20222375     0.14900
C220        C  0.21354297  0.42108605  0.15831504    -0.14700
C221        C  0.20215323  0.39430233  0.17315774    -0.29900
H222        H  0.20920073  0.42402560  0.13322589     0.14300
H223        H  0.20503446  0.39260191  0.19859464     0.14900
C224        C  0.32917561  0.17389089  0.05323762    -0.14700
C225        C  0.35936351  0.17317206  0.06484304    -0.29900
H226        H  0.30966774  0.16197989  0.06609399     0.14300
H227        H  0.37793646  0.18719720  0.05244381     0.14900
C228        C  0.33664101  0.31194772  0.09955682    -0.14700
C229        C  0.34123265  0.29932662  0.07000283    -0.29900
H230        H  0.31322698  0.30879858  0.11069912     0.14300
H231        H  0.36368672  0.30421234  0.05769009     0.14900
C232        C  0.20587540  0.32266630  0.06032874    -0.14700
C233        C  0.18216165  0.31326545  0.08022172    -0.29900
H234        H  0.22040966  0.34433456  0.06583466     0.14300
H235        H  0.16916000  0.29063938  0.07416137     0.14900
C236        C  0.20591908  0.19075115  0.07549102    -0.14700
C237        C  0.17620829  0.17687820  0.07420980    -0.29900
H238        H  0.21971123  0.18921894  0.09755615     0.14300
H239        H  0.16104942  0.18161352  0.05352144     0.14900
C240        C  0.34671419  0.31939638  0.42984363    -0.14700
C241        C  0.33585080  0.34398733  0.41146428    -0.29900
H242        H  0.37147233  0.31102866  0.42763973     0.14300
H243        H  0.31118461  0.35232867  0.41483423     0.14900
C244        C  0.34128836  0.19663255  0.38387750    -0.14700
C245        C  0.32298810  0.18802315  0.40880179    -0.29900
H246        H  0.34699349  0.22264979  0.38057004     0.14300
H247        H  0.31967930  0.16204762  0.41432024     0.14900
C248        C  0.21466303  0.17832083  0.41458573    -0.14700
C249        C  0.19306859  0.18712471  0.39224582    -0.29900
H250        H  0.21854653  0.15249539  0.42018904     0.14300
H251        H  0.18726058  0.21319868  0.38967510     0.14900
C252        C  0.19573364  0.32184833  0.39081872    -0.14700
C253        C  0.18298050  0.30089119  0.41223929    -0.29900
H254        H  0.21989932  0.33132622  0.39504926     0.14300
H255        H  0.15889066  0.29113605  0.40892304     0.14900
O256        O  0.23079105  0.30735001  0.94938342    -0.78400
O257        O  0.28982577  0.30764468  0.55651725    -0.78400
O258        O  0.19932512  0.28102325  0.51201413    -0.78400
O259        O  0.33097006  0.25955047  0.96168101    -0.78400
O260        O  0.24076264  0.31570037  0.51094402    -0.78500
O261        O  0.29656629  0.29970292  0.95653101    -0.78400
O262        O  0.32636093  0.27816703  0.52795370    -0.78400
O263        O  0.18969326  0.27461861  0.95730069    -0.78400
C264        C  0.20119947  0.30080545  0.94537189     1.11300
C265        C  0.31929855  0.30077695  0.54968899     1.11200
C266        C  0.21088017  0.31008321  0.51570839     1.11300
C267        C  0.32445744  0.28825513  0.95165870     1.11200
O268        O  0.29235292  0.23624910  0.92186807    -0.78400
O269        O  0.23294615  0.26403968  0.55729993    -0.78500
O270        O  0.21150442  0.20782735  0.95508265    -0.78400
O271        O  0.30148400  0.20618143  0.52125078    -0.78400
O272        O  0.28689830  0.24377964  0.55449801    -0.78400
O273        O  0.22837136  0.24317522  0.91854261    -0.78400
O274        O  0.29467826  0.19915780  0.95974429    -0.78400
O275        O  0.22589930  0.21762748  0.53058458    -0.78400
Co276      Co  0.26184111  0.27135515  0.93974982     1.51500
Co277      Co  0.26810536  0.27992011  0.52702917     1.51700
Co278      Co  0.21604796  0.23975515  0.48984178     1.51600
Co279      Co  0.30190655  0.23521454  0.99214408     1.51500
O280        O  0.25594323  0.25135925  0.98363576    -1.40300
C281        C  0.29869461  0.20690598  0.93070070     1.11200
C282        C  0.22218312  0.23445119  0.55607684     1.11300
C283        C  0.21699249  0.21527029  0.92637194     1.11200
C284        C  0.29561165  0.21471837  0.54901121     1.11200
O285        O  0.30653928  0.45642900  0.70600948    -0.78400
O286        O  0.29741525  0.05850012  0.75890790    -0.78400
O287        O  0.30052822  0.03733414  0.68234081    -0.78400
O288        O  0.31686318  0.46595048  0.78429961    -0.78400
O289        O  0.27056365  0.07495105  0.70641565    -0.78500
O290        O  0.28099346  0.43459528  0.76008972    -0.78400
O291        O  0.28483808  0.03301078  0.80147713    -0.78400
O292        O  0.31265078  0.50009800  0.67629237    -0.78400
C293        C  0.32103651  0.47127217  0.68381257     1.11300
C294        C  0.30140503  0.05475923  0.78813147     1.11200
C295        C  0.29414542  0.06720224  0.68855086     1.11300
C296        C  0.30589105  0.43763983  0.77742717     1.11200
O297        O  0.22434701  0.47440603  0.75244324    -0.78400
O298        O  0.21095421  0.04019867  0.72175044    -0.78500
O299        O  0.24642578  0.48254180  0.68136067    -0.78400
O300        O  0.21812020  0.03663079  0.78336107    -0.78400
O301        O  0.23744200  0.08338132  0.76319362    -0.78400
O302        O  0.24563321  0.43381470  0.70563584    -0.78400
O303        O  0.24918327  0.47466016  0.79897647    -0.78400
O304        O  0.23164198  0.03970632  0.67432619    -0.78400
Co305      Co  0.26517338  0.46768536  0.72863331     1.51500
Co306      Co  0.25431003  0.04678144  0.74159774     1.51700
Co307      Co  0.26573625  0.00441337  0.68034643     1.51600
Co308      Co  0.25343695  0.00044301  0.78241958     1.51500
O309        O  0.26772612  0.00298362  0.73040425    -1.40300
C310        C  0.22452078  0.46760752  0.78180509     1.11200
C311        C  0.20936361  0.04897487  0.69316844     1.11300
C312        C  0.23712580  0.45201403  0.68278226     1.11200
C313        C  0.21876489  0.06858419  0.78222433     1.11200
O314        O  0.43567685  0.26157873  0.70334582    -0.78400
O315        O  0.09046273  0.26703319  0.77696113    -0.78400
O316        O  0.05482201  0.22957843  0.68213800    -0.78400
O317        O  0.47903119  0.22742008  0.79074700    -0.78400
O318        O  0.07374297  0.22576873  0.72983068    -0.78500
O319        O  0.46740439  0.21737310  0.74028564    -0.78400
O320        O  0.04817607  0.24863027  0.80235441    -0.78400
O321        O  0.47683422  0.23532900  0.67977640    -0.78400
C322        C  0.44616479  0.24126163  0.68264230     1.11300
C323        C  0.07815067  0.25028101  0.79884822     1.11200
C324        C  0.07202089  0.21433365  0.70202890     1.11300
C325        C  0.46391467  0.21079792  0.76953971     1.11200
O326        O  0.44466462  0.27699851  0.76509578    -0.78400
O327        O  0.11143567  0.27855348  0.71617311    -0.78500
O328        O  0.50037554  0.30189552  0.67601735    -0.78400
O329        O  0.04903795  0.31816906  0.79251983    -0.78400
O330        O  0.07080574  0.32269797  0.74483664    -0.78400
O331        O  0.47522981  0.31213831  0.72021828    -0.78400
O332        O  0.48282912  0.29923547  0.79368034    -0.78400
O333        O  0.07325708  0.29811353  0.68410951    -0.78400
Co334      Co  0.47307721  0.26469880  0.72850969     1.51500
Co335      Co  0.07010027  0.27419176  0.73505930     1.51700
Co336      Co  0.03020861  0.27238360  0.68752162     1.51600
Co337      Co  0.01645037  0.28114189  0.78830439     1.51500
O338        O  0.02344815  0.27342360  0.73983578    -1.40300
C339        C  0.45347990  0.29684210  0.78668664     1.11200
C340        C  0.10339255  0.29402336  0.69130804     1.11300
C341        C  0.48187538  0.32018966  0.69231132     1.11200
C342        C  0.06911072  0.33183688  0.77391211     1.11200
C343        C  0.37142588  0.19104183  0.66142262     0.04900
C344        C  0.35293630  0.16921429  0.67947293    -0.11300
C345        C  0.32999706  0.14902810  0.66452034     0.02400
C346        C  0.32391166  0.15212511  0.63186098    -0.09800
C347        C  0.34144946  0.17477629  0.61396830     0.04900
C348        C  0.36586905  0.19343738  0.62855850    -0.09200
H349        H  0.35711642  0.16720574  0.70486464     0.10500
H350        H  0.30512781  0.13753193  0.62055491     0.08000
H351        H  0.37894095  0.21162412  0.61465731     0.07800
C352        C  0.41543049  0.35922492  0.64168183     0.04900
C353        C  0.39555575  0.34533937  0.61736547    -0.11300
C354        C  0.36469631  0.35869631  0.61060345     0.02400
C355        C  0.35458087  0.38686960  0.62786962    -0.09800
C356        C  0.37371510  0.40081629  0.65215405     0.04900
C357        C  0.40402689  0.38710184  0.65886582    -0.09200
H358        H  0.40340354  0.32314556  0.60522040     0.10500
H359        H  0.33051620  0.39675145  0.62390012     0.08000
H360        H  0.41758128  0.39782218  0.67800609     0.07800
C361        C  0.34859170  0.17379905  0.85743288     0.04900
C362        C  0.33620266  0.14501875  0.84237743    -0.11300
C363        C  0.35207538  0.13086066  0.81544260     0.02400
C364        C  0.38092661  0.14525953  0.80433804    -0.09800
C365        C  0.39424279  0.17322608  0.81968818     0.04900
C366        C  0.37772521  0.18714119  0.84598942    -0.09200
H367        H  0.31306568  0.13528209  0.84996659     0.10500
H368        H  0.39263813  0.13461182  0.78382028     0.08000
H369        H  0.38706570  0.20936983  0.85713037     0.07800
C370        C  0.18405415  0.39049008  0.63753175     0.04900
C371        C  0.19646587  0.38601139  0.60662390    -0.11300
C372        C  0.18391392  0.36126510  0.58624631     0.02400
C373        C  0.15846897  0.34103102  0.59742081    -0.09800
C374        C  0.14664938  0.34526132  0.62862765     0.04900
C375        C  0.15877424  0.37077151  0.64778788    -0.09200
H376        H  0.21752380  0.39995269  0.59930882     0.10500
H377        H  0.14985324  0.32035646  0.58329585     0.08000
H378        H  0.14963584  0.37413579  0.67195168     0.07800
C379        C  0.17631521  0.36091406  0.87633464     0.04900
C380        C  0.19203170  0.38814821  0.86308674    -0.11300
C381        C  0.18066358  0.40392831  0.83556981     0.02400
C382        C  0.15203028  0.39202926  0.82081119    -0.09800
C383        C  0.13516930  0.36476054  0.83356644     0.04900
C384        C  0.14753068  0.34964129  0.86153402    -0.09200
H385        H  0.21439028  0.39678965  0.87412087     0.10500
H386        H  0.14294011  0.40382851  0.79975938     0.08000
H387        H  0.13533273  0.32831358  0.87091200     0.07800
C388        C  0.16671875  0.16682133  0.87000671     0.04900
C389        C  0.18026629  0.14186057  0.85080045    -0.11300
C390        C  0.17499306  0.14194110  0.81776735     0.02400
C391        C  0.15680732  0.16690880  0.80411456    -0.09800
C392        C  0.14279320  0.19125519  0.82322902     0.04900
C393        C  0.14695973  0.19080936  0.85628342    -0.09200
H394        H  0.19719406  0.12449362  0.86109741     0.10500
H395        H  0.15404126  0.16769838  0.77857182     0.08000
H396        H  0.13793637  0.21111450  0.87090412     0.07800
C397        C  0.34893637  0.33971694  0.87967617     0.04900
C398        C  0.36926085  0.31867760  0.86168769    -0.11300
C399        C  0.37907915  0.32748678  0.83103444     0.02400
C400        C  0.36766835  0.35672162  0.81752596    -0.09800
C401        C  0.34676073  0.37753464  0.83471341     0.04900
C402        C  0.33811214  0.36930021  0.86595524    -0.09200
H403        H  0.37729524  0.29525243  0.87102245     0.10500
H404        H  0.37500629  0.36316901  0.79369168     0.08000
H405        H  0.32173144  0.38539256  0.87919696     0.07800
C406        C  0.17533460  0.12386346  0.64711273     0.04900
C407        C  0.14773552  0.13877671  0.66144840    -0.11300
C408        C  0.13636861  0.16980407  0.65051487     0.02400
C409        C  0.15381891  0.18602504  0.62641812    -0.09800
C410        C  0.18132615  0.17176273  0.61248162     0.04900
C411        C  0.19128218  0.14056807  0.62247181    -0.09200
H412        H  0.13457146  0.12605217  0.67985749     0.10500
H413        H  0.14530427  0.20977500  0.61779002     0.08000
H414        H  0.21209777  0.12951629  0.61123559     0.07800
C415        C  0.12589995  0.21807712  0.80746376    -0.14700
C416        C  0.09853514  0.23046549  0.81924351    -0.29900
H417        H  0.13355898  0.22442476  0.78367533     0.14300
H418        H  0.08884786  0.22180821  0.84151989     0.14900
C419        C  0.09469565  0.35418610  0.78780521    -0.14700
C420        C  0.10495000  0.35041367  0.81848822    -0.29800
H421        H  0.10836922  0.36931964  0.77172506     0.14300
H422        H  0.09189325  0.33301740  0.83296970     0.14900
C423        C  0.12841204  0.31086167  0.67278930    -0.14700
C424        C  0.12345512  0.32193833  0.64295443    -0.29900
H425        H  0.15129076  0.31569758  0.68464276     0.14300
H426        H  0.10182512  0.31518164  0.62980339     0.14900
C427        C  0.09422294  0.18696943  0.69173091    -0.14700
C428        C  0.10580106  0.18628164  0.66160950    -0.29900
H429        H  0.10615885  0.17245953  0.70993346     0.14300
H430        H  0.09494057  0.20325501  0.64472821     0.14900
C431        C  0.42997917  0.31778535  0.80341225    -0.14700
C432        C  0.40145494  0.30604672  0.81302682    -0.29900
H433        H  0.43708313  0.34286570  0.80990935     0.14300
H434        H  0.39557850  0.28003242  0.80967144     0.14900
C435        C  0.42463371  0.18988523  0.80881310    -0.14700
C436        C  0.43840137  0.18702603  0.77954383    -0.29900
H437        H  0.43467280  0.20808309  0.82530628     0.14300
H438        H  0.42796666  0.17083147  0.76154572     0.14900
C439        C  0.39497860  0.21247469  0.67780285    -0.14700
C440        C  0.42307695  0.22120785  0.66442553    -0.29900
H441        H  0.38994923  0.21966578  0.70215695     0.14300
H442        H  0.43007152  0.21150967  0.64141906     0.14900
C443        C  0.46315891  0.34734131  0.67787407    -0.14700
C444        C  0.44579616  0.34125167  0.65093682    -0.29900
H445        H  0.45748810  0.36757086  0.69314800     0.14300
H446        H  0.45128048  0.31918481  0.63759747     0.14900
C447        C  0.33697174  0.10400770  0.79558634    -0.14700
C448        C  0.32174534  0.07762792  0.80783392    -0.29900
H449        H  0.33818487  0.10638062  0.77005491     0.14300
H450        H  0.32153556  0.07458312  0.83329737     0.14900
C451        C  0.19257396  0.11987779  0.79625432    -0.14700
C452        C  0.19686113  0.08792793  0.80225079    -0.29900
H453        H  0.20219848  0.13043326  0.77469550     0.14300
H454        H  0.18556653  0.07658900  0.82257077     0.14900
C455        C  0.18569597  0.07503693  0.68362788    -0.14700
C456        C  0.18957898  0.09108747  0.65590109    -0.29900
H457        H  0.16877797  0.08423756  0.70120735     0.14300
H458        H  0.20759462  0.08138458  0.63962668     0.14900
C459        C  0.31262971  0.12421277  0.68287243    -0.14700
C460        C  0.31311627  0.09267244  0.67301226    -0.29900
H461        H  0.30034940  0.13155899  0.70458776     0.14300
H462        H  0.32758707  0.08546260  0.65261268     0.14900
C463        C  0.20131410  0.43135742  0.82297462    -0.14700
C464        C  0.19784719  0.44700457  0.79494478    -0.29900
H465        H  0.22282431  0.43734488  0.83706066     0.14300
H466        H  0.17728983  0.44147840  0.77950123     0.14900
C467        C  0.32141561  0.40797247  0.79047983    -0.14700
C468        C  0.33360825  0.40787396  0.82022883    -0.29900
H469        H  0.32029950  0.38505741  0.77657345     0.14300
H470        H  0.33140723  0.42994965  0.83527072     0.14900
C471        C  0.34548594  0.45342145  0.66446435    -0.14700
C472        C  0.35925864  0.42533871  0.67451173    -0.29900
H473        H  0.34910829  0.46111050  0.64008820     0.14300
H474        H  0.35697239  0.41832404  0.69923574     0.14900
C475        C  0.21727195  0.43781442  0.65700426    -0.14700
C476        C  0.20077568  0.41007869  0.66224977    -0.29900
H477        H  0.21696092  0.44935885  0.63380738     0.14300
H478        H  0.19981295  0.40054286  0.68636580     0.14900
C479        C  0.30156200  0.19278611  0.57559936    -0.14700
C480        C  0.33179516  0.18264506  0.58127887    -0.29900
H481        H  0.28361027  0.19216028  0.59452542     0.14300
H482        H  0.35073241  0.18772249  0.56399804     0.14900
C483        C  0.34034148  0.34230256  0.58894636    -0.14700
C484        C  0.34602241  0.31736201  0.56786956    -0.29900
H485        H  0.31554275  0.35121416  0.59107107     0.14300
H486        H  0.37051964  0.30840626  0.56404053     0.14900
C487        C  0.19026309  0.33422128  0.53277836    -0.14700
C488        C  0.20253515  0.35238364  0.55694584    -0.29900
H489        H  0.16427558  0.33006755  0.53168324     0.14300
H490        H  0.22859906  0.35637830  0.55790453     0.14900
C491        C  0.20532528  0.22003837  0.58396008    -0.14700
C492        C  0.19884869  0.18740629  0.58554003    -0.29900
H493        H  0.19824951  0.23632335  0.60332369     0.14300
H494        H  0.20803611  0.17112859  0.56705342     0.14900
C495        C  0.34601589  0.30454020  0.92860744    -0.14700
C496        C  0.33502061  0.32973100  0.91079165    -0.29900
H497        H  0.36882183  0.29250476  0.92303856     0.14300
H498        H  0.31250771  0.34179250  0.91768372     0.14900
C499        C  0.32997026  0.19415211  0.88143804    -0.14700
C500        C  0.31363181  0.18299369  0.90718675    -0.29900
H501        H  0.33207505  0.22069159  0.87884196     0.14300
H502        H  0.31329228  0.15679811  0.91211968     0.14900
C503        C  0.20830980  0.19248849  0.90058814    -0.14700
C504        C  0.18094566  0.17493683  0.90105516    -0.29900
H505        H  0.22108809  0.19535377  0.87815805     0.14300
H506        H  0.16571411  0.17502239  0.92210008     0.14900
C507        C  0.19323994  0.34375950  0.90352189    -0.14700
C508        C  0.18064844  0.32066267  0.92299575    -0.29900
H509        H  0.21858897  0.35005513  0.90702918     0.14300
H510        H  0.15539980  0.31379438  0.92049405     0.14900
O511        O  0.22505090  0.81152226  0.44541602    -0.78400
O512        O  0.29391504  0.77498732  0.06294005    -0.78400
O513        O  0.19312547  0.76664831  0.01874917    -0.78400
O514        O  0.32681483  0.76952933  0.46168110    -0.78400
O515        O  0.22948821  0.77276240  0.05665705    -0.78500
O516        O  0.29107404  0.80728174  0.45240002    -0.78400
O517        O  0.30537593  0.80013161  0.01964785    -0.78400
O518        O  0.18530835  0.77769062  0.45648900    -0.78400
C519        C  0.19572307  0.80327180  0.44262815     1.11300
C520        C  0.30723571  0.79865962  0.04993179     1.11200
C521        C  0.20223054  0.77855413  0.04507557     1.11300
C522        C  0.31927274  0.79636342  0.44833415     1.11200
O523        O  0.28828653  0.73994899  0.42526043    -0.78400
O524        O  0.24712255  0.71294374  0.06095346    -0.78500
O525        O  0.21032554  0.71219586  0.45772533    -0.78400
O526        O  0.32979863  0.72996995  0.02110893    -0.78400
O527        O  0.29012032  0.71208697  0.05002808    -0.78400
O528        O  0.22438095  0.74575357  0.41881159    -0.78400
O529        O  0.29253053  0.70878856  0.46794988    -0.78400
O530        O  0.20990126  0.69795350  0.02605391    -0.78400
Co531      Co  0.25717950  0.77625074  0.43843830     1.51500
Co532      Co  0.26399020  0.74803052  0.03786428     1.51700
Co533      Co  0.20844211  0.73028508  0.99062252     1.51600
Co534      Co  0.29844693  0.74888393  0.49513224     1.51500
O535        O  0.25197251  0.76076154  0.48386570    -1.40300
C536        C  0.29523188  0.71237848  0.43805468     1.11200
C537        C  0.22472182  0.69463079  0.05230942     1.11300
C538        C  0.21296167  0.71852973  0.42839607     1.11200
C539        C  0.31903123  0.71104781  0.04257261     1.11200
O540        O  0.30086972  0.95465460  0.20841407    -0.78400
O541        O  0.30800777  0.54818455  0.27530143    -0.78400
O542        O  0.27481009  0.52952804  0.17317315    -0.78400
O543        O  0.29393910  0.97463793  0.29244234    -0.78400
O544        O  0.30899257  0.54324809  0.21045003    -0.78500
O545        O  0.27255452  0.93435078  0.26292160    -0.78400
O546        O  0.27245915  0.53595528  0.31189791    -0.78400
O547        O  0.28790653  0.97609684  0.16370957    -0.78400
C548        C  0.30504490  0.95652304  0.17856781     1.11300
C549        C  0.29834305  0.55051648  0.30373159     1.11200
C550        C  0.30070124  0.54386572  0.18156224     1.11300
C551        C  0.29116270  0.94420109  0.28550164     1.11200
O552        O  0.21084902  0.96169520  0.24292943    -0.78400
O553        O  0.24111742  0.56459250  0.20936527    -0.78500
O554        O  0.22481694  0.97056980  0.17925974    -0.78400
O555        O  0.21058280  0.52619473  0.28100742    -0.78400
O556        O  0.24113867  0.57007476  0.27297866    -0.78400
O557        O  0.24268501  0.92387298  0.20170447    -0.78400
O558        O  0.22552340  0.96879192  0.29238059    -0.78400
O559        O  0.21360806  0.51814931  0.20335517    -0.78400
Co560      Co  0.25570130  0.96076541  0.22570191     1.51500
Co561      Co  0.27507540  0.55354956  0.24199892     1.51700
Co562      Co  0.25464004  0.49335589  0.19889983     1.51600
Co563      Co  0.24802108  0.49807217  0.29035898     1.51500
O564        O  0.26346951  0.50523596  0.24482031    -1.40300
C565        C  0.20667101  0.95562828  0.27194398     1.11200
C566        C  0.21534716  0.54931371  0.20123368     1.11300
C567        C  0.22376512  0.93881995  0.18260066     1.11200
C568        C  0.21450767  0.55709267  0.28158123     1.11200
O569        O  0.43699946  0.72559271  0.22137585    -0.78400
O570        O  0.08117753  0.71849399  0.26442525    -0.78400
O571        O  0.03494335  0.69417869  0.16963439    -0.78400
O572        O  0.47971914  0.71870580  0.31424910    -0.78400
O573        O  0.05269688  0.68562339  0.21641042    -0.78500
O574        O  0.47511267  0.69897780  0.26588735    -0.78400
O575        O  0.04372251  0.70210019  0.29808577    -0.78400
O576        O  0.48355986  0.70578527  0.20173432    -0.78400
C577        C  0.45226131  0.70491979  0.20374552     1.11300
C578        C  0.07205125  0.70037290  0.28686824     1.11200
C579        C  0.05222083  0.67728262  0.18723465     1.11300
C580        C  0.46792711  0.69765417  0.29497037     1.11200
O581        O  0.44559584  0.76249516  0.27987342    -0.78400
O582        O  0.09191145  0.73736217  0.20335428    -0.78500
O583        O  0.48975999  0.76887000  0.18081278    -0.78400
O584        O  0.05148719  0.77296264  0.29395030    -0.78400
O585        O  0.06269926  0.78117519  0.24313313    -0.78400
O586        O  0.46544700  0.78622760  0.22312646    -0.78400
O587        O  0.48289937  0.78762256  0.30988774    -0.78400
O588        O  0.04719905  0.75435740  0.17833564    -0.78400
Co589      Co  0.47258899  0.74255149  0.24464556     1.51500
Co590      Co  0.05501121  0.73421712  0.22878544     1.51700
Co591      Co  0.01018183  0.72577051  0.19579470     1.51600
Co592      Co  0.01417575  0.74038399  0.29390589     1.51500
O593        O  0.01217732  0.73615182  0.24550967    -1.40300
C594        C  0.45363857  0.78364354  0.30136490     1.11200
C595        C  0.07830679  0.75389467  0.18160216     1.11300
C596        C  0.46925800  0.78746684  0.19318475     1.11200
C597        C  0.06620149  0.78909142  0.27242765     1.11200
C598        C  0.38693325  0.66438960  0.15237817     0.04900
C599        C  0.37911056  0.63331837  0.16462103    -0.11300
C600        C  0.35404702  0.61429566  0.15100272     0.02400
C601        C  0.33795398  0.62637861  0.12389031    -0.09800
C602        C  0.34677415  0.65667141  0.11069260     0.04900
C603        C  0.37089657  0.67571335  0.12534690    -0.09200
H604        H  0.39064812  0.62517568  0.18642956     0.10500
H605        H  0.31747967  0.61318038  0.11347472     0.08000
H606        H  0.37603138  0.70029613  0.11672516     0.07800
C607        C  0.40009776  0.84086060  0.16183888     0.04900
C608        C  0.38539194  0.82350132  0.13625644    -0.11300
C609        C  0.35799931  0.83647678  0.12047390     0.02400
C610        C  0.34591720  0.86751262  0.13072957    -0.09800
C611        C  0.36039310  0.88442951  0.15688104     0.04900
C612        C  0.38751035  0.87114618  0.17160796    -0.09200
H613        H  0.39394869  0.79888282  0.12988407     0.10500
H614        H  0.32366482  0.87667474  0.12047234     0.08000
H615        H  0.39776460  0.88355491  0.19211017     0.07800
C616        C  0.34406571  0.67005562  0.37112412     0.04900
C617        C  0.33275302  0.64021664  0.35771781    -0.11300
C618        C  0.35200203  0.62234696  0.33554148     0.02400
C619        C  0.38283304  0.63471581  0.32755741    -0.09800
C620        C  0.39453137  0.66432271  0.34134030     0.04900
C621        C  0.37481128  0.68156897  0.36303526    -0.09200
H622        H  0.30838013  0.63247392  0.36279883     0.10500
H623        H  0.39750101  0.62123269  0.31030363     0.08000
H624        H  0.38297915  0.70497864  0.37292419     0.07800
C625        C  0.17203807  0.86682614  0.15972111     0.04900
C626        C  0.18351195  0.85909926  0.12913611    -0.11300
C627        C  0.17371191  0.83014007  0.11373217     0.02400
C628        C  0.15172359  0.80913981  0.12853230    -0.09800
C629        C  0.14057100  0.81670941  0.15918355     0.04900
C630        C  0.15076730  0.84546192  0.17475733    -0.09200
H631        H  0.20216015  0.87402524  0.11835367     0.10500
H632        H  0.14570631  0.78549133  0.11769817     0.08000
H633        H  0.14314650  0.85056638  0.19905415     0.07800
C634        C  0.16798448  0.84947209  0.36697872     0.04900
C635        C  0.17883279  0.87785345  0.35192996    -0.11300
C636        C  0.16476033  0.88932850  0.32373006     0.02400
C637        C  0.13908940  0.87079002  0.30948574    -0.09800
C638        C  0.12729159  0.84177413  0.32456868     0.04900
C639        C  0.14198722  0.83184500  0.35341723    -0.09200
H640        H  0.19901004  0.89127139  0.36245272     0.10500
H641        H  0.12792901  0.87930987  0.28783311     0.08000
H642        H  0.13386281  0.80943407  0.36470795     0.07800
C643        C  0.16451835  0.65371152  0.38352000     0.04900
C644        C  0.18491403  0.63413440  0.36454712    -0.11300
C645        C  0.17425287  0.62145953  0.33523702     0.02400
C646        C  0.14298864  0.62895739  0.32464612    -0.09800
C647        C  0.12271476  0.64947825  0.34320109     0.04900
C648        C  0.13306282  0.66051121  0.37329279    -0.09200
H649        H  0.20955682  0.62984883  0.37214472     0.10500
H650        H  0.13525951  0.62081230  0.30120412     0.08000
H651        H  0.11813999  0.67748425  0.38701649     0.07800
C652        C  0.34087308  0.83977837  0.37020166     0.04900
C653        C  0.36616871  0.82132428  0.35600593    -0.11300
C654        C  0.37269454  0.82416350  0.32324981     0.02400
C655        C  0.35407427  0.84529859  0.30460831    -0.09800
C656        C  0.33039051  0.86537322  0.31853793     0.04900
C657        C  0.32389950  0.86260573  0.35131292    -0.09200
H658        H  0.37978526  0.80371345  0.36945498     0.10500
H659        H  0.35875495  0.84693311  0.27935330     0.08000
H660        H  0.30447640  0.87710564  0.36169939     0.07800
C661        C  0.17283470  0.61648649  0.15407645     0.04900
C662        C  0.13986274  0.62236998  0.15954783    -0.11300
C663        C  0.12174682  0.64214829  0.13844125     0.02400
C664        C  0.13687651  0.65373196  0.11093190    -0.09800
C665        C  0.16956403  0.64756334  0.10522568     0.04900
C666        C  0.18765567  0.62945645  0.12718181    -0.09200
H667        H  0.12932835  0.61272036  0.18104461     0.10500
H668        H  0.12346001  0.66909367  0.09449454     0.08000
H669        H  0.21310904  0.62457055  0.12325942     0.07800
C670        C  0.09385693  0.66492027  0.32910204    -0.14700
C671        C  0.09601619  0.67783877  0.29998192    -0.29900
H672        H  0.07321187  0.67065539  0.34420750     0.14300
H673        H  0.11815395  0.67473772  0.28629810     0.14900
C674        C  0.08978540  0.81604936  0.28188715    -0.14700
C675        C  0.09945867  0.82071655  0.31259278    -0.29800
H676        H  0.10159094  0.82974212  0.26314498     0.14300
H677        H  0.08810533  0.80533854  0.33040769     0.14900
C678        C  0.09769405  0.77584515  0.16260516    -0.14700
C679        C  0.12148182  0.79284445  0.17669625    -0.29900
H680        H  0.09053301  0.78075311  0.13818960     0.14300
H681        H  0.12597427  0.79042459  0.20212209     0.14900
C682        C  0.07444465  0.65190398  0.17461288    -0.14700
C683        C  0.08886273  0.65540034  0.14601099    -0.29900
H684        H  0.08396897  0.63512983  0.19198500     0.14300
H685        H  0.07890741  0.67333631  0.12973049     0.14900
C686        C  0.42837013  0.80298958  0.31807151    -0.14700
C687        C  0.39782655  0.80397145  0.30737378    -0.29900
H688        H  0.43502255  0.81708674  0.33927090     0.14300
H689        H  0.39162766  0.79189381  0.28493255     0.14900
C690        C  0.42620111  0.67965637  0.33298582    -0.14700
C691        C  0.44222376  0.67456928  0.30534376    -0.29900
H692        H  0.43476972  0.69917859  0.34890004     0.14300
H693        H  0.43332611  0.65667090  0.28796676     0.14900
C694        C  0.40758571  0.68793887  0.17017101    -0.14700
C695        C  0.43417871  0.67934681  0.18622640    -0.29900
H696        H  0.40093414  0.71393955  0.16938846     0.14300
H697        H  0.44341138  0.65422296  0.18504375     0.14900
C698        C  0.44872658  0.80701431  0.17184883    -0.14700
C699        C  0.42475479  0.82594300  0.18283580    -0.29900
H700        H  0.45157812  0.80340807  0.14649599     0.14300
H701        H  0.42288634  0.83057715  0.20817422     0.14900
C702        C  0.33925340  0.59329670  0.31707763    -0.14700
C703        C  0.31436244  0.57406397  0.32622427    -0.29900
H704        H  0.35026928  0.58844242  0.29384460     0.14300
H705        H  0.30359199  0.57758130  0.34971297     0.14900
C706        C  0.19758111  0.60336517  0.31499195    -0.14700
C707        C  0.18925580  0.57774335  0.29618649    -0.29900
H708        H  0.22311051  0.60922335  0.31815579     0.14300
H709        H  0.16430958  0.56923586  0.29529707     0.14900
C710        C  0.18893180  0.56786119  0.18571572    -0.14700
C711        C  0.19348409  0.59943714  0.17728923    -0.29900
H712        H  0.16736507  0.55465584  0.17781771     0.14300
H713        H  0.21611699  0.61171637  0.18343550     0.14900
C714        C  0.34214734  0.58523878  0.16895908    -0.14700
C715        C  0.31851009  0.56465424  0.15889979    -0.29900
H716        H  0.35112815  0.58274984  0.19326252     0.14300
H717        H  0.30931966  0.56554742  0.13458941     0.14900
C718        C  0.17861475  0.92118605  0.31184478    -0.14700
C719        C  0.18269399  0.92965317  0.28119077    -0.29900
H720        H  0.19065953  0.93657470  0.32970661     0.14300
H721        H  0.17176947  0.91463137  0.26242451     0.14900
C722        C  0.30858428  0.92032422  0.30571945    -0.14700
C723        C  0.31197470  0.88824250  0.29801914    -0.29900
H724        H  0.31950543  0.92969310  0.32777126     0.14300
H725        H  0.30336713  0.87910495  0.27494690     0.14900
C726        C  0.32615899  0.93442234  0.15998237    -0.14700
C727        C  0.34477749  0.91225327  0.17408166    -0.29900
H728        H  0.32389399  0.93429300  0.13444447     0.14300
H729        H  0.34783302  0.91377116  0.19958316     0.14900
C730        C  0.19948846  0.91993442  0.16539704    -0.14700
C731        C  0.18729389  0.89294935  0.17868799    -0.29900
H732        H  0.19344594  0.92669693  0.14125319     0.14300
H733        H  0.19151906  0.88826333  0.20371437     0.14900
C734        C  0.34015675  0.68989364  0.06179464    -0.14700
C735        C  0.32735110  0.67069758  0.08469087    -0.29900
H736        H  0.36610196  0.69265549  0.05966903     0.14300
H737        H  0.30147573  0.66677513  0.08578701     0.14900
C738        C  0.33948589  0.81438303  0.09786133    -0.14700
C739        C  0.32439700  0.82372664  0.07053246    -0.29900
H740        H  0.33964754  0.78826705  0.10346246     0.14300
H741        H  0.32599572  0.84905908  0.06269111     0.14900
C742        C  0.17997455  0.79819597  0.06410152    -0.14700
C743        C  0.19213249  0.81881832  0.08607711    -0.29900
H744        H  0.15434464  0.79295747  0.06278399     0.14300
H745        H  0.21757910  0.82518016  0.08549690     0.14900
C746        C  0.21465711  0.67090833  0.07556653    -0.14700
C747        C  0.18390023  0.66177932  0.07664263    -0.29900
H748        H  0.23088701  0.66666325  0.09552344     0.14300
H749        H  0.16754701  0.66918433  0.05759109     0.14900
C750        C  0.34002986  0.81017804  0.42300384    -0.14700
C751        C  0.32839455  0.83324074  0.40296943    -0.29900
H752        H  0.36259100  0.79755669  0.41811892     0.14300
H753        H  0.30576258  0.84538060  0.40924745     0.14900
C754        C  0.32286642  0.69276268  0.38958260    -0.14700
C755        C  0.30997735  0.68570718  0.41815523    -0.29900
H756        H  0.32169581  0.71797528  0.38114721     0.14300
H757        H  0.31330515  0.66135961  0.42813540     0.14900
C758        C  0.20133768  0.69491005  0.40434648    -0.14700
C759        C  0.17816762  0.67274278  0.41032328    -0.29900
H760        H  0.21004220  0.69775738  0.38004939     0.14300
H761        H  0.16675177  0.67168107  0.43361696     0.14900
C762        C  0.18668713  0.83777524  0.39517838    -0.14700
C763        C  0.17443185  0.81961523  0.41897533    -0.29900
H764        H  0.21219967  0.84403201  0.39590331     0.14300
H765        H  0.14897842  0.81332357  0.41887359     0.14900
O766        O  0.23735346  0.79043753  0.95042167    -0.78400
O767        O  0.28550027  0.78608294  0.56691861    -0.78400
O768        O  0.19433901  0.78459719  0.52172322    -0.78400
O769        O  0.30004567  0.79363526  0.95249814    -0.78400
O770        O  0.24047020  0.81222459  0.52535888    -0.78500
O771        O  0.28247318  0.76573909  0.90969142    -0.78400
O772        O  0.31128877  0.79166619  0.52148750    -0.78400
O773        O  0.19433105  0.76021396  0.95588243    -0.78400
C774        C  0.20750475  0.78618635  0.94613279     1.11300
C775        C  0.30861332  0.79847667  0.55158055     1.11200
C776        C  0.21040145  0.81015809  0.53075235     1.11300
C777        C  0.29775934  0.79002627  0.92197085     1.11200
O778        O  0.28435715  0.70624108  0.94099513    -0.78400
O779        O  0.23079295  0.75191038  0.55713757    -0.78500
O780        O  0.21465576  0.69251748  0.96078046    -0.78400
O781        O  0.33541300  0.72908161  0.51506881    -0.78400
O782        O  0.28733631  0.72580863  0.53785599    -0.78400
O783        O  0.23014548  0.72472889  0.92222452    -0.78400
O784        O  0.32864872  0.72810983  0.95620199    -0.78400
O785        O  0.21583190  0.71464686  0.52265809    -0.78400
Co786      Co  0.26372873  0.74938704  0.94730547     1.51500
Co787      Co  0.26483731  0.77069547  0.52884739     1.51700
Co788      Co  0.20462268  0.74765199  0.48965897     1.51600
Co789      Co  0.30946770  0.76063720  0.98812973     1.51500
O790        O  0.25930391  0.74117774  0.99165593    -1.40300
C791        C  0.31420158  0.70571282  0.94083643     1.11200
C792        C  0.21762318  0.72446598  0.55118828     1.11300
C793        C  0.21720071  0.69815458  0.93137489     1.11200
C794        C  0.31708673  0.71654860  0.53596142     1.11200
O795        O  0.26730058  0.93227438  0.69784724    -0.78400
O796        O  0.30221464  0.57427128  0.76622977    -0.78400
O797        O  0.30398748  0.56398496  0.70043030    -0.78400
O798        O  0.28628273  0.96670048  0.79578062    -0.78400
O799        O  0.26795854  0.60018731  0.71910613    -0.78500
O800        O  0.29671456  0.94674218  0.74930790    -0.78400
O801        O  0.32665525  0.53243650  0.78933447    -0.78400
O802        O  0.29973554  0.96963541  0.67867957    -0.78400
C803        C  0.29198852  0.93964331  0.68170872     1.11300
C804        C  0.32519036  0.56271759  0.78291902     1.11200
C805        C  0.29329110  0.59400421  0.70266404     1.11300
C806        C  0.30354053  0.94876671  0.77803772     1.11200
O807        O  0.23644750  0.91990492  0.75433179    -0.78400
O808        O  0.23170082  0.54838307  0.70172205    -0.78500
O809        O  0.23016343  0.97147788  0.67098833    -0.78400
O810        O  0.26023979  0.54183259  0.80712524    -0.78400
O811        O  0.23399334  0.56290570  0.76618440    -0.78400
O812        O  0.20967933  0.96820510  0.71843680    -0.78400
O813        O  0.21758258  0.96475436  0.77918794    -0.78400
O814        O  0.26097748  0.54147629  0.65808557    -0.78400
Co815      Co  0.25320455  0.95874004  0.73615118     1.51500
Co816      Co  0.26856530  0.55623422  0.73503191     1.51700
Co817      Co  0.27555010  0.52234322  0.69673338     1.51600
Co818      Co  0.28799249  0.50423863  0.79159275     1.51500
O819        O  0.28136644  0.50893355  0.74355460    -1.40300
C820        C  0.21758776  0.93309068  0.77459645     1.11200
C821        C  0.23528387  0.55227077  0.67125362     1.11300
C822        C  0.20761876  0.96196759  0.68909406     1.11200
C823        C  0.23721857  0.55870953  0.79573338     1.11200
O824        O  0.44626751  0.74352966  0.71223036    -0.78400
O825        O  0.08326156  0.73232372  0.77532040    -0.78400
O826        O  0.04632682  0.71435285  0.67579820    -0.78400
O827        O  0.48694658  0.73163044  0.80453128    -0.78400
O828        O  0.06404472  0.70373779  0.72203870    -0.78500
O829        O  0.48269642  0.71366334  0.75548251    -0.78400
O830        O  0.04456670  0.70679781  0.80189493    -0.78400
O831        O  0.49209665  0.72306006  0.69151835    -0.78400
C832        C  0.46086667  0.72367489  0.69318826     1.11300
C833        C  0.07370637  0.70891898  0.79269243     1.11200
C834        C  0.06456409  0.69751351  0.69242975     1.11300
C835        C  0.47632051  0.71062508  0.78456859     1.11200
O836        O  0.45512656  0.77826552  0.77151528    -0.78400
O837        O  0.09668497  0.76305014  0.71704768    -0.78500
O838        O  0.50047126  0.78514155  0.67351550    -0.78400
O839        O  0.04939965  0.77731282  0.80760789    -0.78400
O840        O  0.05806179  0.79542043  0.75899561    -0.78400
O841        O  0.47658149  0.80271139  0.71593384    -0.78400
O842        O  0.49274682  0.80086444  0.80298347    -0.78400
O843        O  0.05151352  0.77553684  0.69077655    -0.78400
Co844      Co  0.48191083  0.75818030  0.73618373     1.51500
Co845      Co  0.05855994  0.75065743  0.73937074     1.51700
Co846      Co  0.01775818  0.74087863  0.70354865     1.51600
Co847      Co  0.01340708  0.74396777  0.80205380     1.51500
O848        O  0.01473404  0.74524799  0.75358402    -1.40300
C849        C  0.46363596  0.79864317  0.79352494     1.11200
C850        C  0.08229615  0.77869563  0.69502575     1.11300
C851        C  0.48023255  0.80395531  0.68595455     1.11200
C852        C  0.06239301  0.79784017  0.78882504     1.11200
C853        C  0.39069539  0.68036090  0.65324136     0.04900
C854        C  0.37025458  0.65651098  0.66545803    -0.11300
C855        C  0.34813339  0.64025100  0.64572498     0.02400
C856        C  0.34633066  0.64835822  0.61330362    -0.09800
C857        C  0.36547237  0.67419027  0.60112077     0.04900
C858        C  0.38870882  0.68902731  0.62104117    -0.09200
H859        H  0.37163722  0.65059029  0.69074032     0.10500
H860        H  0.32895507  0.63578719  0.59833451     0.08000
H861        H  0.40325084  0.70925670  0.61239383     0.07800
C862        C  0.40681549  0.85029702  0.65428250     0.04900
C863        C  0.39399418  0.82929802  0.63016169    -0.11300
C864        C  0.36505172  0.83762214  0.61439843     0.02400
C865        C  0.34908094  0.86699935  0.62320310    -0.09800
C866        C  0.36139993  0.88761467  0.64749338     0.04900
C867        C  0.39052115  0.87950851  0.66234579    -0.09200
H868        H  0.40543355  0.80566317  0.62491974     0.10500
H869        H  0.32610723  0.87298521  0.61243691     0.08000
H870        H  0.39952273  0.89499234  0.68172599     0.07800
C871        C  0.37068473  0.67158238  0.87558764     0.04900
C872        C  0.35147083  0.65052540  0.85636905    -0.11300
C873        C  0.36369676  0.63645648  0.82797333     0.02400
C874        C  0.39518875  0.64459788  0.81801789    -0.09800
C875        C  0.41414010  0.66685190  0.83634325     0.04900
C876        C  0.40191668  0.67913865  0.86535215    -0.09200
H877        H  0.32676075  0.64550435  0.86279338     0.10500
H878        H  0.40417588  0.63463379  0.79564622     0.08000
H879        H  0.41632801  0.69651208  0.87939613     0.07800
C880        C  0.17120655  0.88845638  0.64215752     0.04900
C881        C  0.17475671  0.87571225  0.61088273    -0.11300
C882        C  0.16297098  0.84414652  0.60240862     0.02400
C883        C  0.14609282  0.82612394  0.62528533    -0.09800
C884        C  0.14250346  0.83813542  0.65668844     0.04900
C885        C  0.15545354  0.86906376  0.66511134    -0.09200
H886        H  0.18740788  0.89025436  0.59359582     0.10500
H887        H  0.13737018  0.80167425  0.61917809     0.08000
H888        H  0.15368415  0.87742216  0.68975167     0.07800
C889        C  0.18256769  0.83280806  0.87188446     0.04900
C890        C  0.19884602  0.85213910  0.84985182    -0.11300
C891        C  0.18338524  0.86278618  0.82232787     0.02400
C892        C  0.15132949  0.85366805  0.81606848    -0.09800
C893        C  0.13470834  0.83266529  0.83699391     0.04900
C894        C  0.15048517  0.82284741  0.86523557    -0.09200
H895        H  0.22381604  0.85884093  0.85398998     0.10500
H896        H  0.14069876  0.86160973  0.79408603     0.08000
H897        H  0.13840583  0.80598030  0.88077642     0.07800
C898        C  0.16198351  0.64391076  0.88097681     0.04900
C899        C  0.18053925  0.62305568  0.86127974    -0.11300
C900        C  0.16939755  0.61341227  0.83084296     0.02400
C901        C  0.13965832  0.62572102  0.82014928    -0.09800
C902        C  0.12081321  0.64626053  0.83998365     0.04900
C903        C  0.13149764  0.65427532  0.87077272    -0.09200
H904        H  0.20447697  0.61621117  0.86918449     0.10500
H905        H  0.13159940  0.62024247  0.79600774     0.08000
H906        H  0.11777443  0.67147193  0.88531508     0.07800
C907        C  0.34131815  0.83051509  0.85368267     0.04900
C908        C  0.36830375  0.81946995  0.83670844    -0.11300
C909        C  0.38404754  0.84030199  0.81553808     0.02400
C910        C  0.37227561  0.87230121  0.81083277    -0.09800
C911        C  0.34466551  0.88360754  0.82742514     0.04900
C912        C  0.32985236  0.86278707  0.84949156    -0.09200
H913        H  0.37682520  0.79421839  0.83952550     0.10500
H914        H  0.38459390  0.88795107  0.79403482     0.08000
H915        H  0.30811481  0.87082088  0.86164378     0.07800
C916        C  0.17421979  0.61830809  0.64432938     0.04900
C917        C  0.14482827  0.63246727  0.65469598    -0.11300
C918        C  0.13052996  0.65909335  0.63825391     0.02400
C919        C  0.14660139  0.67155517  0.61146877    -0.09800
C920        C  0.17621934  0.65823894  0.60126309     0.04900
C921        C  0.18958421  0.63135529  0.61730239    -0.09200
H922        H  0.13353653  0.62249555  0.67558735     0.10500
H923        H  0.13653720  0.69242141  0.59896573     0.08000
H924        H  0.21295642  0.62217541  0.60982841     0.07800
C925        C  0.09305672  0.66441640  0.82713865    -0.14700
C926        C  0.09769558  0.68457417  0.80256313    -0.29900
H927        H  0.07081460  0.66568986  0.84089735     0.14300
H928        H  0.12120713  0.68519939  0.79089563     0.14900
C929        C  0.08661174  0.82191706  0.80099171    -0.14700
C930        C  0.10300112  0.81687949  0.82847550    -0.29800
H931        H  0.09407933  0.84067656  0.78464706     0.14300
H932        H  0.09475413  0.79739753  0.84389330     0.14900
C933        C  0.09955765  0.80070171  0.67342214    -0.14700
C934        C  0.12654544  0.81736848  0.68092991    -0.29900
H935        H  0.08837040  0.80452990  0.65021794     0.14300
H936        H  0.13634959  0.81653584  0.70502858     0.14900
C937        C  0.08732262  0.67302173  0.67863671    -0.14700
C938        C  0.10038800  0.67649051  0.64931347    -0.29900
H939        H  0.09713671  0.65553936  0.69506164     0.14300
H940        H  0.09095841  0.69570601  0.63427784     0.14900
C941        C  0.43881488  0.81815518  0.81048984    -0.14700
C942        C  0.41112532  0.82718329  0.79647814    -0.29900
H943        H  0.44276037  0.82410734  0.83552885     0.14300
H944        H  0.40751386  0.82310482  0.77108230     0.14900
C945        C  0.44519112  0.68124549  0.82528537    -0.14700
C946        C  0.45296442  0.68506178  0.79444838    -0.29900
H947        H  0.45962098  0.69427218  0.84310216     0.14300
H948        H  0.43890720  0.67299358  0.77585105     0.14900
C949        C  0.41035837  0.69948356  0.67561054    -0.14700
C950        C  0.44233285  0.70127190  0.67273046    -0.29900
H951        H  0.39794575  0.71202099  0.69528184     0.14300
H952        H  0.45479466  0.68718740  0.65406907     0.14900
C953        C  0.45895591  0.82261250  0.66461179    -0.14700
C954        C  0.43361484  0.83979250  0.67531438    -0.29900
H955        H  0.46170347  0.81834231  0.63905276     0.14300
H956        H  0.43151572  0.84510140  0.70077427     0.14900
C957        C  0.34175808  0.61563035  0.80798184    -0.14700
C958        C  0.34979972  0.58529029  0.79703052    -0.29900
H959        H  0.31676605  0.62378910  0.80570406     0.14300
H960        H  0.37370138  0.57541513  0.80230727     0.14900
C961        C  0.18996810  0.59393151  0.80848445    -0.14700
C962        C  0.21471804  0.57493095  0.81816288    -0.29900
H963        H  0.18486934  0.59578050  0.78308949     0.14300
H964        H  0.21918298  0.57128370  0.84340010     0.14900
C965        C  0.21144837  0.57037403  0.65166936    -0.14700
C966        C  0.19044641  0.59260836  0.66409280    -0.29900
H967        H  0.21458221  0.56881447  0.62616528     0.14300
H968        H  0.18686873  0.59371577  0.68960925     0.14900
C969        C  0.32660228  0.61520991  0.65942763    -0.14700
C970        C  0.31127253  0.62060499  0.68734729    -0.29900
H971        H  0.32343470  0.59207169  0.64659778     0.14300
H972        H  0.31189087  0.64470649  0.69880023     0.14900
C973        C  0.20226968  0.88154639  0.79924641    -0.14700
C974        C  0.19458497  0.91265364  0.79207240    -0.29900
H975        H  0.22536665  0.87131787  0.79170096     0.14300
H976        H  0.17324806  0.92415366  0.80243408     0.14900
C977        C  0.32931566  0.92750642  0.79016876    -0.14700
C978        C  0.32815405  0.91503439  0.81960290    -0.29900
H979        H  0.34512095  0.91669605  0.77237880     0.14300
H980        H  0.31012572  0.92440904  0.83613736     0.14900
C981        C  0.31102380  0.91296974  0.66666944    -0.14700
C982        C  0.34252856  0.91610852  0.65974091    -0.29900
H983        H  0.29923905  0.88912218  0.66322748     0.14300
H984        H  0.35525276  0.93878075  0.66618775     0.14900
C985        C  0.18316398  0.93785453  0.67759306    -0.14700
C986        C  0.18809406  0.91998138  0.65060357    -0.29900
H987        H  0.16388931  0.93140008  0.69380447     0.14300
H988        H  0.20747237  0.92735917  0.63482633     0.14900
C989        C  0.32803910  0.69149858  0.55871409    -0.14700
C990        C  0.35843819  0.68979333  0.56986979    -0.29900
H991        H  0.30897007  0.67860876  0.57092866     0.14300
H992        H  0.37679506  0.70526791  0.55935671     0.14900
C993        C  0.34865869  0.81329490  0.59285917    -0.14700
C994        C  0.33048461  0.82221714  0.56767773    -0.29900
H995        H  0.35020018  0.78720653  0.59893936     0.14300
H996        H  0.33039864  0.84773028  0.55974143     0.14900
C997        C  0.19596297  0.83487260  0.55290678    -0.14700
C998        C  0.17035917  0.82731567  0.57129069    -0.29900
H999        H  0.21053437  0.85631733  0.55856074     0.14300
H1000       H  0.15750826  0.80450502  0.56610640     0.14900
C1001       C  0.20255487  0.70598807  0.57731450    -0.14700
C1002       C  0.19419436  0.67396839  0.57500874    -0.29900
H1003       H  0.19757110  0.71946338  0.59920863     0.14300
H1004       H  0.20096222  0.65928016  0.55434678     0.14900
C1005       C  0.31139873  0.81538399  0.90173999    -0.14700
C1006       C  0.32403550  0.80686374  0.87357914    -0.29900
H1007       H  0.31418074  0.84038105  0.91132331     0.14300
H1008       H  0.32401762  0.78094874  0.86600945     0.14900
C1009       C  0.35796674  0.68971618  0.90418080    -0.14700
C1010       C  0.33085489  0.68161460  0.91979182    -0.29900
H1011       H  0.37037919  0.71248532  0.91126167     0.14300
H1012       H  0.31765536  0.65927539  0.91320145     0.14900
C1013       C  0.20527557  0.67465020  0.90721230    -0.14700
C1014       C  0.17642624  0.65972699  0.90956825    -0.29900
H1015       H  0.21819744  0.67362871  0.88478858     0.14300
H1016       H  0.16150301  0.66408856  0.93038006     0.14900
C1017       C  0.20158946  0.82023700  0.89918262    -0.14700
C1018       C  0.18837746  0.80776498  0.92551297    -0.29900
H1019       H  0.22760606  0.81907546  0.89641897     0.14300
H1020       H  0.16251546  0.80815571  0.92881430     0.14900
O1021       O  0.72706197  0.29484119  0.45287163    -0.78400
O1022       O  0.77747074  0.28732321  0.05305128    -0.78400
O1023       O  0.68073228  0.26474543  0.01814222    -0.78400
O1024       O  0.79150965  0.29555900  0.45531786    -0.78400
O1025       O  0.72354412  0.29733300  0.01617617    -0.78500
O1026       O  0.77075895  0.26760859  0.41372123    -0.78400
O1027       O  0.81125526  0.27062256  0.01323053    -0.78400
O1028       O  0.68249691  0.26736190  0.45971968    -0.78400
C1029       C  0.69716828  0.29140544  0.44750737     1.11300
C1030       C  0.80545266  0.28714595  0.04010221     1.11200
C1031       C  0.69435132  0.29229692  0.02425616     1.11300
C1032       C  0.78801818  0.29118556  0.42460775     1.11200
O1033       O  0.77223874  0.20876279  0.44539541    -0.78400
O1034       O  0.72342840  0.24211354  0.05796061    -0.78500
O1035       O  0.69947942  0.19939128  0.46865323    -0.78400
O1036       O  0.79553895  0.19923395  0.99788174    -0.78400
O1037       O  0.78055923  0.22360981  0.04169315    -0.78400
O1038       O  0.71747227  0.22853027  0.42852649    -0.78400
O1039       O  0.81725915  0.22974557  0.45893770    -0.78400
O1040       O  0.70445940  0.19978297  0.02926392    -0.78400
Co1041     Co  0.75225305  0.25277730  0.45164445     1.51500
Co1042     Co  0.75375303  0.26088538  0.02523896     1.51700
Co1043     Co  0.69409455  0.22610710  0.99053654     1.51600
Co1044     Co  0.79794010  0.26131867  0.49175421     1.51500
O1045       O  0.74621557  0.24385057  0.49557995    -1.40300
C1046       C  0.80216166  0.20767395  0.44383152     1.11200
C1047       C  0.70961331  0.21390947  0.05618063     1.11300
C1048       C  0.70333673  0.20303496  0.43893047     1.11200
C1049       C  0.79399914  0.19967456  0.02758585     1.11200
O1050       O  0.81692588  0.46176098  0.20894922    -0.78400
O1051       O  0.82479509  0.03982342  0.26182203    -0.78400
O1052       O  0.80154046  0.02606607  0.19193685    -0.78400
O1053       O  0.78094090  0.46987838  0.31173163    -0.78400
O1054       O  0.79754195  0.07611723  0.21384442    -0.78500
O1055       O  0.81594114  0.45957469  0.27395883    -0.78400
O1056       O  0.79793239  0.03970653  0.30737960    -0.78400
O1057       O  0.78217597  0.47478448  0.17241735    -0.78400
C1058       C  0.80787047  0.45993786  0.18026187     1.11300
C1059       C  0.82253769  0.04852258  0.29093601     1.11200
C1060       C  0.80844434  0.05713608  0.19214865     1.11300
C1061       C  0.80635949  0.45536956  0.30206670     1.11200
O1062       O  0.75081451  0.43152843  0.27170330    -0.78400
O1063       O  0.73962209  0.04631234  0.21334509    -0.78500
O1064       O  0.72093372  0.48200863  0.20333730    -0.78400
O1065       O  0.72970970  0.03444358  0.28705941    -0.78400
O1066       O  0.76372542  0.07031894  0.26850401    -0.78400
O1067       O  0.75092496  0.43708072  0.20773213    -0.78400
O1068       O  0.71823381  0.47334158  0.28295210    -0.78400
O1069       O  0.74078763  0.01402310  0.17049433    -0.78400
Co1070     Co  0.78365968  0.45060348  0.24086084     1.51500
Co1071     Co  0.78389763  0.03920012  0.23719951     1.51700
Co1072     Co  0.76165086  0.99915145  0.20806845     1.51600
Co1073     Co  0.76426635  0.00325820  0.29987150     1.51500
O1074       O  0.77613899  0.99372399  0.25333317    -1.40300
C1075       C  0.72343637  0.44262991  0.28100803     1.11200
C1076       C  0.73022642  0.03974031  0.18449427     1.11300
C1077       C  0.72488086  0.45124864  0.19921506     1.11200
C1078       C  0.73772660  0.06409422  0.28278502     1.11200
O1079       O  0.93479127  0.20969060  0.20224059    -0.78400
O1080       O  0.58679838  0.25663274  0.27132564    -0.78400
O1081       O  0.54130688  0.20195548  0.19522973    -0.78400
O1082       O  0.97545056  0.22217108  0.29340581    -0.78400
O1083       O  0.57974367  0.22882756  0.21894142    -0.78500
O1084       O  0.97520082  0.19183757  0.24988516    -0.78400
O1085       O  0.55365541  0.21848260  0.28844844    -0.78400
O1086       O  0.97349967  0.22708526  0.16846388    -0.78400
C1087       C  0.94680081  0.21097273  0.17429421     1.11300
C1088       C  0.58198226  0.22955661  0.28535409     1.11200
C1089       C  0.56990651  0.20314562  0.20496584     1.11300
C1090       C  0.96767420  0.19548946  0.27898189     1.11200
O1091       O  0.93666462  0.25186456  0.25684322    -0.78400
O1092       O  0.59336470  0.29207549  0.21478403    -0.78500
O1093       O  0.99186804  0.29782542  0.18491816    -0.78400
O1094       O  0.54493369  0.28823381  0.30210165    -0.78400
O1095       O  0.54687614  0.31291261  0.25611479    -0.78400
O1096       O  0.94957060  0.27233154  0.20189115    -0.78400
O1097       O  0.97082051  0.29001430  0.27290893    -0.78400
O1098       O  0.55864645  0.27138116  0.17856143    -0.78400
Co1099     Co  0.96710356  0.23182179  0.22415678     1.51500
Co1100     Co  0.55903480  0.27101828  0.23479052     1.51700
Co1101     Co  0.51720684  0.24391695  0.19201342     1.51600
Co1102     Co  0.51615527  0.24842691  0.29247574     1.51500
O1103       O  0.51664842  0.25117182  0.24210016    -1.40300
C1104       C  0.94219328  0.28021688  0.26915363     1.11200
C1105       C  0.58455938  0.28825440  0.18585909     1.11300
C1106       C  0.96196763  0.29697791  0.18870043     1.11200
C1107       C  0.55404630  0.31261536  0.28542334     1.11200
C1108       C  0.88564983  0.15400180  0.13366035     0.04900
C1109       C  0.86973683  0.12567574  0.14412278    -0.11300
C1110       C  0.84013924  0.11595053  0.13065603     0.02400
C1111       C  0.82762766  0.13341246  0.10485728    -0.09800
C1112       C  0.84384252  0.16129871  0.09353149     0.04900
C1113       C  0.87274169  0.17148422  0.10800972    -0.09200
H1114       H  0.87858866  0.11369180  0.16515553     0.10500
H1115       H  0.80391645  0.12716992  0.09554658     0.08000
H1116       H  0.88362884  0.19466910  0.10059578     0.07800
C1117       C  0.89106696  0.33589774  0.14276448     0.04900
C1118       C  0.87345829  0.32471818  0.11596537    -0.11300
C1119       C  0.84694398  0.34273961  0.10441763     0.02400
C1120       C  0.83833132  0.37258323  0.12008351    -0.09800
C1121       C  0.85588777  0.38450273  0.14678572     0.04900
C1122       C  0.88235012  0.36592205  0.15769426    -0.09200
H1123       H  0.87922653  0.30086163  0.10545701     0.10500
H1124       H  0.81681562  0.38533127  0.11241563     0.08000
H1125       H  0.89490475  0.37388061  0.17915579     0.07800
C1126       C  0.86098043  0.16758698  0.38117211     0.04900
C1127       C  0.84652223  0.13848291  0.36911843    -0.11300
C1128       C  0.85860032  0.12167947  0.34188405     0.02400
C1129       C  0.88645525  0.13445336  0.32648389    -0.09800
C1130       C  0.90180641  0.16341685  0.33836884     0.04900
C1131       C  0.88880424  0.17922793  0.36572286    -0.09200
H1132       H  0.82497745  0.12862067  0.38076906     0.10500
H1133       H  0.89568242  0.12245866  0.30541451     0.08000
H1134       H  0.90000626  0.20178172  0.37471873     0.07800
C1135       C  0.68946111  0.38675765  0.14197054     0.04900
C1136       C  0.69771938  0.37483480  0.11158587    -0.11300
C1137       C  0.68101035  0.34827703  0.09744514     0.02400
C1138       C  0.65591622  0.33287004  0.11476064    -0.09800
C1139       C  0.64788287  0.34439560  0.14572375     0.04900
C1140       C  0.66427751  0.37179130  0.15851198    -0.09200
H1141       H  0.71816266  0.38562888  0.09929171     0.10500
H1142       H  0.64459295  0.31086226  0.10533858     0.08000
H1143       H  0.65900430  0.37995028  0.18274420     0.07800
C1144       C  0.67724248  0.33810856  0.36981242     0.04900
C1145       C  0.69534962  0.35701376  0.34869502    -0.11300
C1146       C  0.68198295  0.36903079  0.32046825     0.02400
C1147       C  0.64961145  0.36130992  0.31250016    -0.09800
C1148       C  0.63088599  0.34107568  0.33270767     0.04900
C1149       C  0.64501555  0.33009930  0.36150442    -0.09200
H1150       H  0.72047382  0.36261073  0.35433813     0.10500
H1151       H  0.64000679  0.36968811  0.29006260     0.08000
H1152       H  0.63126672  0.31393668  0.37658285     0.07800
C1153       C  0.67680315  0.16333221  0.36076042     0.04900
C1154       C  0.68883322  0.13338675  0.34887760    -0.11300
C1155       C  0.67339428  0.11735811  0.32312758     0.02400
C1156       C  0.64546459  0.13120677  0.30980188    -0.09800
C1157       C  0.63432586  0.16201340  0.32087242     0.04900
C1158       C  0.64983790  0.17767194  0.34663423    -0.09200
H1159       H  0.71089993  0.12320938  0.35879062     0.10500
H1160       H  0.63400329  0.11935611  0.28942702     0.08000
H1161       H  0.64134290  0.20143156  0.35535699     0.07800
C1162       C  0.82485560  0.32191881  0.34732013     0.04900
C1163       C  0.84443757  0.30155308  0.32827582    -0.11300
C1164       C  0.86407041  0.31489210  0.30478164     0.02400
C1165       C  0.86260790  0.34899969  0.29913300    -0.09800
C1166       C  0.84230829  0.36988978  0.31729410     0.04900
C1167       C  0.82385709  0.35608934  0.34209208    -0.09200
H1168       H  0.84506747  0.27518980  0.33243688     0.10500
H1169       H  0.87666542  0.35929136  0.27974124     0.08000
H1170       H  0.80727219  0.37115633  0.35614190     0.07800
C1171       C  0.67674699  0.11448279  0.16286629     0.04900
C1172       C  0.64800440  0.12911073  0.17443930    -0.11300
C1173       C  0.63281006  0.15463219  0.15741040     0.02400
C1174       C  0.64760027  0.16648043  0.12969627    -0.09800
C1175       C  0.67680178  0.15306380  0.11847321     0.04900
C1176       C  0.69075964  0.12649849  0.13465152    -0.09200
H1177       H  0.63717655  0.12004269  0.19606836     0.10500
H1178       H  0.63634012  0.18639473  0.11673433     0.08000
H1179       H  0.71337190  0.11616300  0.12598809     0.07800
C1180       C  0.60755356  0.17888131  0.30466427    -0.14700
C1181       C  0.60938555  0.21126617  0.29830928    -0.29900
H1182       H  0.58642513  0.16458078  0.29755879     0.14300
H1183       H  0.63168671  0.22478193  0.30285240     0.14900
C1184       C  0.58009197  0.33525331  0.29775184    -0.14700
C1185       C  0.59823190  0.32717694  0.32355312    -0.29800
H1186       H  0.58753697  0.35530946  0.28267304     0.14300
H1187       H  0.58990011  0.30673985  0.33781321     0.14900
C1188       C  0.60414002  0.30344328  0.16030838    -0.14700
C1189       C  0.62597565  0.32685713  0.16791793    -0.29900
H1190       H  0.59986629  0.29621561  0.13562620     0.14300
H1191       H  0.62794900  0.33426566  0.19292465     0.14900
C1192       C  0.59363826  0.17670917  0.19787386    -0.14700
C1193       C  0.60157220  0.17000694  0.16738199    -0.29900
H1194       H  0.60993110  0.16936875  0.21683210     0.14300
H1195       H  0.58703278  0.18115890  0.14875429     0.14900
C1196       C  0.91636558  0.30269997  0.27979447    -0.14700
C1197       C  0.88660712  0.29260356  0.28734805    -0.29900
H1198       H  0.92344673  0.32792886  0.28514567     0.14300
H1199       H  0.88048029  0.26668597  0.28471451     0.14900
C1200       C  0.93022776  0.18006316  0.32272392    -0.14700
C1201       C  0.94484675  0.17185536  0.29470464    -0.29900
H1202       H  0.93843197  0.20262866  0.33457638     0.14300
H1203       H  0.93740046  0.14993953  0.28145884     0.14900
C1204       C  0.91089229  0.16803756  0.15480120    -0.14700
C1205       C  0.92941033  0.19428543  0.14814702    -0.29900
H1206       H  0.91243004  0.15786190  0.17848940     0.14300
H1207       H  0.93096285  0.20413438  0.12440393     0.14900
C1208       C  0.94074047  0.32260208  0.17508260    -0.14700
C1209       C  0.91498662  0.31315521  0.15739215    -0.29900
H1210       H  0.94723721  0.34842983  0.17756923     0.14300
H1211       H  0.91136248  0.28690777  0.15297342     0.14900
C1212       C  0.83957029  0.09222763  0.32989756    -0.14700
C1213       C  0.84638304  0.07292570  0.30417124    -0.29900
H1214       H  0.81699396  0.08714376  0.34249070     0.14300
H1215       H  0.86815643  0.07736670  0.29031043     0.14900
C1216       C  0.68892390  0.08858712  0.30768679    -0.14700
C1217       C  0.71905334  0.09160355  0.29645564    -0.29900
H1218       H  0.67549781  0.06568922  0.30455903     0.14300
H1219       H  0.73099324  0.11555921  0.29791978     0.14900
C1220       C  0.70824674  0.06236897  0.16736266    -0.14700
C1221       C  0.69332124  0.08832370  0.18151103    -0.29900
H1222       H  0.70592853  0.05874238  0.14172936     0.14300
H1223       H  0.69386868  0.09096019  0.20733419     0.14900
C1224       C  0.81870127  0.09347333  0.14818761    -0.14700
C1225       C  0.82985000  0.07042839  0.16798306    -0.29900
H1226       H  0.79282409  0.09844536  0.14744282     0.14300
H1227       H  0.85509353  0.06305829  0.16806841     0.14900
C1228       C  0.70366505  0.38830041  0.29950123    -0.14700
C1229       C  0.69780716  0.42003742  0.29257096    -0.29900
H1230       H  0.72777272  0.37832044  0.29518445     0.14300
H1231       H  0.67460808  0.43083033  0.29930971     0.14900
C1232       C  0.81982921  0.42785852  0.32079252    -0.14700
C1233       C  0.83823487  0.40454048  0.30641539    -0.29900
H1234       H  0.80970604  0.42383641  0.34449093     0.14300
H1235       H  0.84808801  0.40986631  0.28281784     0.14900
C1236       C  0.82366187  0.43675104  0.15723754    -0.14700
C1237       C  0.84480727  0.41339045  0.16674280    -0.29900
H1238       H  0.81503019  0.43681507  0.13283017     0.14300
H1239       H  0.85332435  0.41438733  0.19127076     0.14900
C1240       C  0.70084988  0.43190094  0.18134290    -0.14700
C1241       C  0.71082172  0.41090310  0.15821806    -0.29900
H1242       H  0.67536799  0.43519532  0.18664824     0.14300
H1243       H  0.73623540  0.41065562  0.15155335     0.14900
C1244       C  0.80999856  0.17428135  0.04645250    -0.14700
C1245       C  0.82782788  0.18402870  0.07153784    -0.29900
H1246       H  0.80860495  0.14831997  0.03920613     0.14300
H1247       H  0.83120028  0.21049311  0.07614890     0.14900
C1248       C  0.82433699  0.32834486  0.08004463    -0.14700
C1249       C  0.83170768  0.30486122  0.05775226    -0.29900
H1250       H  0.79933018  0.33671356  0.08168824     0.14300
H1251       H  0.85667790  0.29738678  0.05373934     0.14900
C1252       C  0.67756385  0.31503578  0.04666858    -0.14700
C1253       C  0.69435709  0.33414601  0.06720737    -0.29900
H1254       H  0.65187773  0.31125469  0.05043534     0.14300
H1255       H  0.72008344  0.33763563  0.06306325     0.14900
C1256       C  0.69724296  0.19904457  0.08586533    -0.14700
C1257       C  0.69230577  0.16640047  0.08935455    -0.29900
H1258       H  0.69171688  0.21575919  0.10564769     0.14300
H1259       H  0.70028117  0.14914504  0.07088476     0.14900
C1260       C  0.80326620  0.31394196  0.40186564    -0.14700
C1261       C  0.80395041  0.30569432  0.37069251    -0.29900
H1262       H  0.81652462  0.33510245  0.41068667     0.14300
H1263       H  0.79248748  0.28311272  0.36262062     0.14900
C1264       C  0.84720808  0.18781948  0.40853139    -0.14700
C1265       C  0.81808285  0.18288745  0.42236031    -0.29900
H1266       H  0.86075505  0.20984628  0.41597343     0.14300
H1267       H  0.80293927  0.16208561  0.41456112     0.14900
C1268       C  0.69016496  0.17871025  0.41599106    -0.14700
C1269       C  0.69473881  0.18258520  0.38462293    -0.29900
H1270       H  0.67505957  0.15866120  0.42458456     0.14300
H1271       H  0.70906544  0.20310957  0.37585474     0.14900
C1272       C  0.69430010  0.32461582  0.39840927    -0.14700
C1273       C  0.67955548  0.31174849  0.42396884    -0.29900
H1274       H  0.72075065  0.32384485  0.39759364     0.14300
H1275       H  0.65319738  0.31190068  0.42542130     0.14900
O1276       O  0.71980414  0.28495133  0.94639464    -0.78400
O1277       O  0.77042520  0.29030947  0.57025928    -0.78400
O1278       O  0.68496368  0.28034534  0.52299401    -0.78400
O1279       O  0.78775273  0.28461194  0.94838713    -0.78400
O1280       O  0.73130081  0.30630979  0.52153879    -0.78500
O1281       O  0.76543101  0.26462923  0.90427323    -0.78400
O1282       O  0.80018504  0.29913290  0.52684149    -0.78400
O1283       O  0.67785762  0.25295276  0.95320831    -0.78400
C1284       C  0.69038074  0.27867252  0.94131158     1.11300
C1285       C  0.79319608  0.30527827  0.55660016     1.11200
C1286       C  0.70085962  0.30716189  0.52285313     1.11300
C1287       C  0.78369638  0.28585656  0.91766624     1.11200
O1288       O  0.78219806  0.20905340  0.93505450    -0.78400
O1289       O  0.71658461  0.25212961  0.56426864    -0.78500
O1290       O  0.70322089  0.18730620  0.96258812    -0.78400
O1291       O  0.81487981  0.22880838  0.52342170    -0.78400
O1292       O  0.77248457  0.22567083  0.55347355    -0.78400
O1293       O  0.71899727  0.21791048  0.92207847    -0.78400
O1294       O  0.82817542  0.23079283  0.95196566    -0.78400
O1295       O  0.70078371  0.21065722  0.53424275    -0.78400
Co1296     Co  0.75058757  0.24771210  0.94360189     1.51500
Co1297     Co  0.75326617  0.26589731  0.53601834     1.51700
Co1298     Co  0.69576808  0.23928705  0.49665480     1.51600
Co1299     Co  0.78893850  0.24135996  0.97550049     1.51500
O1300       O  0.74136283  0.23775746  0.98802777    -1.40300
C1301       C  0.81330351  0.21008819  0.93379936     1.11200
C1302       C  0.70295603  0.22425496  0.56146258     1.11300
C1303       C  0.70660923  0.19156261  0.93290378     1.11200
C1304       C  0.80030017  0.21598340  0.54651933     1.11200
O1305       O  0.81043927  0.45979098  0.70185168    -0.78400
O1306       O  0.82597886  0.05381662  0.77184523    -0.78400
O1307       O  0.81245587  0.04777026  0.69739439    -0.78400
O1308       O  0.77205271  0.47135101  0.80339305    -0.78400
O1309       O  0.80292098  0.09362228  0.72532438    -0.78500
O1310       O  0.80777255  0.45973805  0.76676705    -0.78400
O1311       O  0.79405434  0.04482492  0.81319563    -0.78400
O1312       O  0.77614889  0.46897212  0.66352285    -0.78400
C1313       C  0.80314822  0.45766229  0.67270800     1.11300
C1314       C  0.81976894  0.05742938  0.80142627     1.11200
C1315       C  0.81749998  0.07904916  0.70274054     1.11300
C1316       C  0.79769729  0.45661317  0.79485717     1.11200
O1317       O  0.74362179  0.43050001  0.76424567    -0.78400
O1318       O  0.74610868  0.06220341  0.71499803    -0.78500
O1319       O  0.71308971  0.47422027  0.69149315    -0.78400
O1320       O  0.72882000  0.04253038  0.78320713    -0.78400
O1321       O  0.76378967  0.08097766  0.77416805    -0.78400
O1322       O  0.74539765  0.43147888  0.69926136    -0.78400
O1323       O  0.71046196  0.47258988  0.77346876    -0.78400
O1324       O  0.75465162  0.03652672  0.66904386    -0.78400
Co1325     Co  0.77662844  0.44841356  0.73305668     1.51500
Co1326     Co  0.78824726  0.05383383  0.74249594     1.51700
Co1327     Co  0.77165406  0.01810298  0.70682975     1.51600
Co1328     Co  0.76167924  0.01012390  0.79720648     1.51500
O1329       O  0.78072728  0.00599131  0.75257656    -1.40300
C1330       C  0.71656665  0.44196879  0.77403833     1.11200
C1331       C  0.73947903  0.05819860  0.68502516     1.11300
C1332       C  0.71894924  0.44346859  0.68876329     1.11200
C1333       C  0.73595734  0.07266026  0.78285638     1.11200
O1334       O  0.94890383  0.23156516  0.70649205    -0.78400
O1335       O  0.58391678  0.26039029  0.77357501    -0.78400
O1336       O  0.54039716  0.21396391  0.69087266    -0.78400
O1337       O  0.98487671  0.24349980  0.79540030    -0.78400
O1338       O  0.57829068  0.23377227  0.72099279    -0.78500
O1339       O  0.99143172  0.21408323  0.75185166    -0.78400
O1340       O  0.54628693  0.22637814  0.79016842    -0.78400
O1341       O  0.98912157  0.24453491  0.67343527    -0.78400
C1342       C  0.96162520  0.23012468  0.67901616     1.11300
C1343       C  0.57576660  0.23356193  0.78667673     1.11200
C1344       C  0.56726244  0.21053615  0.70432822     1.11300
C1345       C  0.98134823  0.21629003  0.78018690     1.11200
O1346       O  0.95052667  0.27387058  0.75913720    -0.78400
O1347       O  0.59992779  0.29458434  0.72048618    -0.78500
O1348       O  0.00793818  0.31553869  0.68359042    -0.78400
O1349       O  0.54649309  0.29768649  0.79986753    -0.78400
O1350       O  0.55040229  0.32129164  0.75360050    -0.78400
O1351       O  0.96532964  0.29412391  0.70466810    -0.78400
O1352       O  0.98220675  0.31310379  0.77826128    -0.78400
O1353       O  0.56663204  0.28197835  0.68009897    -0.78400
Co1354     Co  0.98217691  0.25413614  0.72714364     1.51500
Co1355     Co  0.56119373  0.27776503  0.73492802     1.51700
Co1356     Co  0.52088702  0.25864693  0.68824765     1.51600
Co1357     Co  0.51387048  0.26213540  0.79012206     1.51500
O1358       O  0.51761371  0.26264698  0.74098572    -1.40300
C1359       C  0.95418712  0.30178356  0.77317911     1.11200
C1360       C  0.59389917  0.29407315  0.69099145     1.11300
C1361       C  0.97811250  0.31650395  0.68855323     1.11200
C1362       C  0.55571832  0.32188010  0.78320106     1.11200
C1363       C  0.90247316  0.16891822  0.63972478     0.04900
C1364       C  0.88869131  0.13973518  0.65089878    -0.11300
C1365       C  0.86093240  0.12611787  0.63670914     0.02400
C1366       C  0.84854711  0.14065058  0.60899202    -0.09800
C1367       C  0.86271757  0.16954675  0.59670466     0.04900
C1368       C  0.88986941  0.18330440  0.61205820    -0.09200
H1369       H  0.89883320  0.12855734  0.67210775     0.10500
H1370       H  0.82716395  0.13033094  0.59799366     0.08000
H1371       H  0.89943819  0.20649437  0.60379083     0.07800
C1372       C  0.90562483  0.34954514  0.64061790     0.04900
C1373       C  0.88983384  0.33538220  0.61405366    -0.11300
C1374       C  0.86189373  0.34975353  0.60124303     0.02400
C1375       C  0.85017964  0.37932185  0.61482798    -0.09800
C1376       C  0.86540085  0.39400721  0.64159546     0.04900
C1377       C  0.89350311  0.37908485  0.65402177    -0.09200
H1378       H  0.89825252  0.31189703  0.60443179     0.10500
H1379       H  0.82814639  0.38973964  0.60525184     0.08000
H1380       H  0.90444453  0.38906832  0.67549281     0.07800
C1381       C  0.87616916  0.17029718  0.87559761     0.04900
C1382       C  0.86245128  0.14262039  0.85944511    -0.11300
C1383       C  0.87627861  0.12999767  0.83073909     0.02400
C1384       C  0.90391150  0.14603163  0.81832812    -0.09800
C1385       C  0.91808638  0.17332516  0.83442424     0.04900
C1386       C  0.90431640  0.18433219  0.86322653    -0.09200
H1387       H  0.84061908  0.13162514  0.86864900     0.10500
H1388       H  0.91374470  0.13747882  0.79587410     0.08000
H1389       H  0.91466550  0.20562738  0.87541095     0.07800
C1390       C  0.68702295  0.37709268  0.62941276     0.04900
C1391       C  0.69258933  0.37329813  0.59652817    -0.11300
C1392       C  0.67264586  0.35289188  0.57750647     0.02400
C1393       C  0.64766956  0.33490915  0.59198119    -0.09800
C1394       C  0.64257506  0.33728289  0.62510886     0.04900
C1395       C  0.66190592  0.35922123  0.64340771    -0.09200
H1396       H  0.71121314  0.38799049  0.58531647     0.10500
H1397       H  0.63153273  0.32008435  0.57735508     0.08000
H1398       H  0.65744671  0.36265886  0.66865244     0.07800
C1399       C  0.67107489  0.33861408  0.87194835     0.04900
C1400       C  0.69105552  0.35771567  0.85236282    -0.11300
C1401       C  0.67887541  0.37373077  0.82539749     0.02400
C1402       C  0.64605635  0.36989986  0.81739205    -0.09800
C1403       C  0.62559674  0.35019593  0.83608363     0.04900
C1404       C  0.63820747  0.33544570  0.86371483    -0.09200
H1405       H  0.71664478  0.36012705  0.85812520     0.10500
H1406       H  0.63708703  0.38124194  0.79594991     0.08000
H1407       H  0.62237690  0.32026906  0.87792946     0.07800
C1408       C  0.66215025  0.15932970  0.85991152     0.04900
C1409       C  0.67608328  0.13101964  0.84648408    -0.11300
C1410       C  0.66327884  0.11713718  0.81827477     0.02400
C1411       C  0.63550952  0.13095411  0.80438017    -0.09800
C1412       C  0.62183524  0.15962231  0.81796405     0.04900
C1413       C  0.63477518  0.17289770  0.84611228    -0.09200
H1414       H  0.69831513  0.12139334  0.85639353     0.10500
H1415       H  0.62644638  0.12130124  0.78188561     0.08000
H1416       H  0.62456185  0.19536810  0.85638748     0.07800
C1417       C  0.82622447  0.32585297  0.84660153     0.04900
C1418       C  0.85166347  0.30886780  0.83148110    -0.11300
C1419       C  0.87203562  0.32489038  0.81002541     0.02400
C1420       C  0.86587619  0.35799380  0.80271467    -0.09800
C1421       C  0.84007385  0.37538344  0.81676446     0.04900
C1422       C  0.82043412  0.35924356  0.83932883    -0.09200
H1423       H  0.85562298  0.28300900  0.83649379     0.10500
H1424       H  0.88031837  0.37000669  0.78472422     0.08000
H1425       H  0.79961645  0.37148572  0.84953117     0.07800
C1426       C  0.67502353  0.12398181  0.66515292     0.04900
C1427       C  0.64472321  0.13521555  0.67656096    -0.11300
C1428       C  0.62649223  0.15813936  0.65878290     0.02400
C1429       C  0.63954329  0.17077639  0.63064696    -0.09800
C1430       C  0.67004188  0.16084018  0.61988261     0.04900
C1431       C  0.68727491  0.13706571  0.63667849    -0.09200
H1432       H  0.63525351  0.12575368  0.69859448     0.10500
H1433       H  0.62623746  0.18898008  0.61731358     0.08000
H1434       H  0.71110705  0.13005330  0.62822307     0.07800
C1435       C  0.59685144  0.17884032  0.80139485    -0.14700
C1436       C  0.60097322  0.21160240  0.79833469    -0.29900
H1437       H  0.57532071  0.16662228  0.79242319     0.14300
H1438       H  0.62392059  0.22284290  0.80473455     0.14900
C1439       C  0.57954145  0.34551789  0.79667144    -0.14700
C1440       C  0.59228489  0.34049692  0.82589183    -0.29800
H1441       H  0.59082080  0.36232487  0.78007744     0.14300
H1442       H  0.57976487  0.32347712  0.84153519     0.14900
C1443       C  0.61951405  0.30756855  0.67047783    -0.14700
C1444       C  0.61601830  0.31826360  0.64049873    -0.29900
H1445       H  0.64272197  0.31107953  0.68222031     0.14300
H1446       H  0.59359869  0.31385686  0.62762293     0.14900
C1447       C  0.58849498  0.18163612  0.69877830    -0.14700
C1448       C  0.59441248  0.17126536  0.66886120    -0.29900
H1449       H  0.60599133  0.17605345  0.71729908     0.14300
H1450       H  0.57859123  0.18009693  0.65006455     0.14900
C1451       C  0.92637646  0.32072944  0.78542966    -0.14700
C1452       C  0.89873600  0.30614471  0.79444157    -0.29900
H1453       H  0.93007173  0.34676626  0.79015052     0.14300
H1454       H  0.89662271  0.27954385  0.79245317     0.14900
C1455       C  0.94522400  0.19383455  0.82153542    -0.14700
C1456       C  0.96061872  0.18954796  0.79337529    -0.29900
H1457       H  0.95140415  0.21561194  0.83544684     0.14300
H1458       H  0.95557743  0.16833617  0.77844393     0.14900
C1459       C  0.92565707  0.18618761  0.66116278    -0.14700
C1460       C  0.94449405  0.21188298  0.65344416    -0.29900
H1461       H  0.92604606  0.17801524  0.68589022     0.14300
H1462       H  0.94710689  0.21969442  0.62884090     0.14900
C1463       C  0.95678083  0.34085102  0.67282648    -0.14700
C1464       C  0.93041391  0.32937069  0.65719970    -0.29900
H1465       H  0.96326436  0.36686484  0.67233198     0.14300
H1466       H  0.92687418  0.30269163  0.65583948     0.14900
C1467       C  0.86075753  0.10261429  0.81112039    -0.14700
C1468       C  0.83967563  0.07992517  0.82239474    -0.29900
H1469       H  0.86626170  0.10187644  0.78581906     0.14300
H1470       H  0.83418460  0.07992029  0.84766365     0.14900
C1471       C  0.68221934  0.09169439  0.80120826    -0.14700
C1472       C  0.71323998  0.09796416  0.79416836    -0.29900
H1473       H  0.67124371  0.06796083  0.79542468     0.14300
H1474       H  0.72294415  0.12260419  0.79862793     0.14900
C1475       C  0.71461971  0.07822576  0.66885578    -0.14700
C1476       C  0.69502267  0.10024614  0.68368304    -0.29900
H1477       H  0.71338847  0.07551683  0.64310983     0.14300
H1478       H  0.69441004  0.10162605  0.70952946     0.14900
C1479       C  0.84246295  0.09949613  0.65289868    -0.14700
C1480       C  0.84134731  0.09832387  0.68497799    -0.29900
H1481       H  0.82640009  0.08396260  0.63895508     0.14300
H1482       H  0.85418813  0.11665263  0.69901097     0.14900
C1483       C  0.70154524  0.39312608  0.80539018    -0.14700
C1484       C  0.69257850  0.42001300  0.78900644    -0.29900
H1485       H  0.72713544  0.38689157  0.80659668     0.14300
H1486       H  0.66766194  0.42852481  0.79005377     0.14900
C1487       C  0.81124890  0.43041566  0.81534349    -0.14700
C1488       C  0.83232651  0.40827637  0.80316972    -0.29900
H1489       H  0.80037361  0.42659702  0.83845069     0.14300
H1490       H  0.84300530  0.41337398  0.78011885     0.14900
C1491       C  0.82401017  0.43895770  0.65021768    -0.14700
C1492       C  0.84967275  0.42124606  0.66035306    -0.29900
H1493       H  0.81587364  0.43724078  0.62570931     0.14300
H1494       H  0.85766796  0.42459779  0.68484329     0.14900
C1495       C  0.69662660  0.42162279  0.67048277    -0.14700
C1496       C  0.70808361  0.39929113  0.64900324    -0.29900
H1497       H  0.67069822  0.42531194  0.67298844     0.14300
H1498       H  0.73396398  0.39841390  0.64432923     0.14900
C1499       C  0.81555504  0.19082094  0.56679466    -0.14700
C1500       C  0.84777352  0.18819756  0.57012617    -0.29900
H1501       H  0.79977287  0.17754253  0.58275470     0.14300
H1502       H  0.86329187  0.20398023  0.55610345     0.14900
C1503       C  0.84365318  0.33155161  0.57579432    -0.14700
C1504       C  0.81110530  0.33024797  0.57556415    -0.29900
H1505       H  0.85698786  0.31522982  0.55994642     0.14300
H1506       H  0.79764864  0.34335809  0.59384087     0.14900
C1507       C  0.68382243  0.33884212  0.51931036    -0.14700
C1508       C  0.67191328  0.35846460  0.54269580    -0.29900
H1509       H  0.68179163  0.34771835  0.49508917     0.14300
H1510       H  0.66133312  0.38177466  0.53546365     0.14900
C1511       C  0.68871970  0.20858594  0.58959917    -0.14700
C1512       C  0.68436617  0.17581825  0.59131599    -0.29900
H1513       H  0.68237576  0.22447446  0.61009743     0.14300
H1514       H  0.69330061  0.15945434  0.57221529     0.14900
C1515       C  0.80039160  0.31104623  0.89821086    -0.14700
C1516       C  0.80375159  0.30649269  0.86648199    -0.29900
H1517       H  0.81293881  0.33126920  0.91016972     0.14300
H1518       H  0.79338934  0.28456932  0.85525153     0.14900
C1519       C  0.86132823  0.18758683  0.90405343    -0.14700
C1520       C  0.82964583  0.18690178  0.91099594    -0.29900
H1521       H  0.87643127  0.20491348  0.91749669     0.14300
H1522       H  0.81379967  0.17090265  0.89694033     0.14900
C1523       C  0.69268628  0.16766830  0.91022888    -0.14700
C1524       C  0.67901162  0.17949681  0.88384931    -0.29900
H1525       H  0.69102471  0.14170563  0.91605444     0.14300
H1526       H  0.67828819  0.20606498  0.88035750     0.14900
C1527       C  0.68633947  0.32107339  0.89940131    -0.14700
C1528       C  0.67164757  0.29907318  0.91858481    -0.29900
H1529       H  0.71224820  0.32517932  0.90279668     0.14300
H1530       H  0.64602930  0.29338238  0.91580054     0.14900
O1531       O  0.73839667  0.79693673  0.44650952    -0.78400
O1532       O  0.78181158  0.76491060  0.07189234    -0.78400
O1533       O  0.68983699  0.76279999  0.02911779    -0.78400
O1534       O  0.82314146  0.80336477  0.45825473    -0.78400
O1535       O  0.73575968  0.78916503  0.03259188    -0.78500
O1536       O  0.79357263  0.77569920  0.42257647    -0.78400
O1537       O  0.80185449  0.78440301  0.02652228    -0.78400
O1538       O  0.69763218  0.78264616  0.47484847    -0.78400
C1539       C  0.70862663  0.79963919  0.45293739     1.11300
C1540       C  0.80033303  0.78482477  0.05751070     1.11200
C1541       C  0.70597726  0.78715407  0.03928134     1.11300
C1542       C  0.81215797  0.79984449  0.43011157     1.11200
O1543       O  0.78391593  0.71040229  0.45121381    -0.78400
O1544       O  0.72580835  0.72722840  0.06409511    -0.78500
O1545       O  0.71821202  0.71881427  0.46401336    -0.78400
O1546       O  0.82153621  0.71450414  0.01971642    -0.78400
O1547       O  0.77800188  0.70325428  0.04485958    -0.78400
O1548       O  0.73624266  0.73673173  0.41693671    -0.78400
O1549       O  0.83125998  0.73364216  0.44817983    -0.78400
O1550       O  0.70432673  0.69393704  0.02805232    -0.78400
Co1551     Co  0.76125562  0.75344567  0.45095739     1.51500
Co1552     Co  0.75967983  0.74670571  0.03624074     1.51700
Co1553     Co  0.69965020  0.72866381  0.99581564     1.51600
Co1554     Co  0.82794643  0.76464115  0.48616670     1.51500
O1555       O  0.77902024  0.76297524  0.49160998    -1.40300
C1556       C  0.81276927  0.70942707  0.44199249     1.11200
C1557       C  0.70985696  0.70149627  0.05692193     1.11300
C1558       C  0.71880234  0.71711260  0.43305857     1.11200
C1559       C  0.80656437  0.69645517  0.03875135     1.11200
O1560       O  0.82290201  0.95865899  0.21411552    -0.78400
O1561       O  0.81778704  0.54186124  0.25925766    -0.78400
O1562       O  0.80172508  0.53734823  0.18888527    -0.78400
O1563       O  0.79748135  0.97320621  0.31976442    -0.78400
O1564       O  0.79383569  0.58431008  0.21495909    -0.78500
O1565       O  0.82997919  0.96386394  0.27938235    -0.78400
O1566       O  0.78961615  0.53781698  0.30397319    -0.78400
O1567       O  0.78256215  0.96340574  0.18150740    -0.78400
C1568       C  0.81037936  0.95211575  0.18729584     1.11300
C1569       C  0.81522458  0.54687897  0.28907672     1.11200
C1570       C  0.80799851  0.56843372  0.19304394     1.11300
C1571       C  0.82374826  0.96149923  0.30870571     1.11200
O1572       O  0.76926779  0.92918925  0.28714092    -0.78400
O1573       O  0.73520223  0.55471677  0.20743025    -0.78500
O1574       O  0.72518640  0.96936234  0.21771338    -0.78400
O1575       O  0.72208969  0.53962433  0.27895920    -0.78400
O1576       O  0.75865194  0.57492668  0.26618222    -0.78400
O1577       O  0.75992766  0.92811772  0.22420522    -0.78400
O1578       O  0.73189764  0.96694354  0.29720828    -0.78400
O1579       O  0.74325494  0.52793536  0.16178777    -0.78400
Co1580     Co  0.79542845  0.94791430  0.25116234     1.51500
Co1581     Co  0.77813089  0.54519976  0.23321316     1.51700
Co1582     Co  0.76004477  0.50966560  0.19947346     1.51600
Co1583     Co  0.75339984  0.50518257  0.29136945     1.51500
O1584       O  0.76895253  0.49848813  0.24535113    -1.40300
C1585       C  0.74138498  0.93714908  0.29745024     1.11200
C1586       C  0.72836516  0.55005740  0.17749124     1.11300
C1587       C  0.73179317  0.93868472  0.21686194     1.11200
C1588       C  0.73180018  0.56892290  0.27866663     1.11200
O1589       O  0.93118849  0.71050647  0.21375919    -0.78400
O1590       O  0.58476254  0.73881373  0.28146650    -0.78400
O1591       O  0.54235273  0.71264437  0.18420954    -0.78400
O1592       O  0.97746528  0.70901189  0.30329967    -0.78400
O1593       O  0.56095569  0.70532813  0.23102741    -0.78500
O1594       O  0.97101025  0.68500307  0.25679999    -0.78400
O1595       O  0.54693052  0.71443554  0.30944826    -0.78400
O1596       O  0.97557035  0.68941436  0.19059774    -0.78400
C1597       C  0.94457138  0.68958356  0.19503193     1.11300
C1598       C  0.57629705  0.71814072  0.30201412     1.11200
C1599       C  0.55959757  0.69607505  0.20210334     1.11300
C1600       C  0.96594231  0.68559100  0.28632827     1.11200
O1601       O  0.94409054  0.75099274  0.26844328    -0.78400
O1602       O  0.59749886  0.76070487  0.22147786    -0.78500
O1603       O  0.98291160  0.75101531  0.16755914    -0.78400
O1604       O  0.55090864  0.78590235  0.31155097    -0.78400
O1605       O  0.56243944  0.79977631  0.26184583    -0.78400
O1606       O  0.96227797  0.77010781  0.21100712    -0.78400
O1607       O  0.98407123  0.77836809  0.29213337    -0.78400
O1608       O  0.55403892  0.77408262  0.19307609    -0.78400
Co1609     Co  0.96869117  0.72721168  0.23369875     1.51500
Co1610     Co  0.55919052  0.75367175  0.24485176     1.51700
Co1611     Co  0.51667924  0.74383297  0.20942960     1.51600
Co1612     Co  0.51538898  0.75161084  0.30811923     1.51500
O1613       O  0.51522103  0.75231512  0.25942816    -1.40300
C1614       C  0.95450467  0.77582301  0.28451408     1.11200
C1615       C  0.58505334  0.77548254  0.19792885     1.11300
C1616       C  0.96431452  0.77087923  0.18095005     1.11200
C1617       C  0.56534206  0.80452855  0.29181918     1.11200
C1618       C  0.90570932  0.64089543  0.12825727     0.04900
C1619       C  0.88859466  0.61442666  0.14092236    -0.11300
C1620       C  0.86043441  0.60275055  0.12615357     0.02400
C1621       C  0.85060016  0.61652803  0.09715659    -0.09800
C1622       C  0.86754503  0.64353064  0.08420614     0.04900
C1623       C  0.89581165  0.65465601  0.09939252    -0.09200
H1624       H  0.89630105  0.60404359  0.16355083     0.10500
H1625       H  0.82861319  0.60768221  0.08610939     0.08000
H1626       H  0.90828253  0.67618622  0.09051691     0.07800
C1627       C  0.89754533  0.83061815  0.15787134     0.04900
C1628       C  0.87787322  0.81314235  0.13612358    -0.11300
C1629       C  0.84890625  0.82702224  0.12509164     0.02400
C1630       C  0.83975982  0.85885967  0.13583900    -0.09800
C1631       C  0.85939966  0.87649394  0.15786538     0.04900
C1632       C  0.88819703  0.86205688  0.16830779    -0.09200
H1633       H  0.88389589  0.78785318  0.12937490     0.10500
H1634       H  0.81652520  0.86842102  0.12886231     0.08000
H1635       H  0.90283304  0.87476370  0.18613225     0.07800
C1636       C  0.86560956  0.65492413  0.38668264     0.04900
C1637       C  0.84712642  0.62905789  0.37315510    -0.11300
C1638       C  0.85769865  0.61160120  0.34560988     0.02400
C1639       C  0.88746319  0.62115649  0.33148876    -0.09800
C1640       C  0.90632410  0.64678777  0.34534552     0.04900
C1641       C  0.89549888  0.66238196  0.37328756    -0.09200
H1642       H  0.82410284  0.62254092  0.38371601     0.10500
H1643       H  0.89590645  0.60908319  0.30981700     0.08000
H1644       H  0.90954563  0.68231227  0.38351880     0.07800
C1645       C  0.69946654  0.86646272  0.16687928     0.04900
C1646       C  0.70878833  0.85748747  0.13592417    -0.11300
C1647       C  0.69266153  0.83257520  0.11890610     0.02400
C1648       C  0.66675392  0.81582842  0.13371029    -0.09800
C1649       C  0.65800359  0.82389689  0.16546259     0.04900
C1650       C  0.67415475  0.84960562  0.18159747    -0.09200
H1651       H  0.72953917  0.86948903  0.12526071     0.10500
H1652       H  0.65557523  0.79499997  0.12190992     0.08000
H1653       H  0.66841208  0.85508620  0.20631835     0.07800
C1654       C  0.67615765  0.84980867  0.38307392     0.04900
C1655       C  0.68958113  0.87514579  0.36527178    -0.11300
C1656       C  0.67410344  0.88718248  0.33815907     0.02400
C1657       C  0.64414137  0.87376069  0.32882112    -0.09800
C1658       C  0.63029628  0.84729901  0.34576789     0.04900
C1659       C  0.64627620  0.83607481  0.37348031    -0.09200
H1660       H  0.71270542  0.88538819  0.37245722     0.10500
H1661       H  0.63249214  0.88333660  0.30791495     0.08000
H1662       H  0.63645023  0.81520870  0.38629158     0.07800
C1663       C  0.68123370  0.66243871  0.36856597     0.04900
C1664       C  0.69291064  0.63504282  0.35169858    -0.11300
C1665       C  0.67255053  0.61702943  0.33109857     0.02400
C1666       C  0.64012546  0.62639897  0.32775461    -0.09800
C1667       C  0.62865337  0.65486184  0.34347542     0.04900
C1668       C  0.64903956  0.67219817  0.36466146    -0.09200
H1669       H  0.71807847  0.62825393  0.35400370     0.10500
H1670       H  0.62489632  0.61367707  0.31045957     0.08000
H1671       H  0.64060222  0.69497785  0.37596108     0.07800
C1672       C  0.83742845  0.83165584  0.34964460     0.04900
C1673       C  0.85566580  0.81040698  0.33036620    -0.11300
C1674       C  0.87846927  0.82294032  0.30936263     0.02400
C1675       C  0.88124107  0.85723834  0.30576035    -0.09800
C1676       C  0.86141369  0.87908586  0.32335527     0.04900
C1677       C  0.84009827  0.86595132  0.34621402    -0.09200
H1678       H  0.85367559  0.78385719  0.33330841     0.10500
H1679       H  0.89817775  0.86686008  0.28829513     0.08000
H1680       H  0.82452514  0.88175850  0.36044710     0.07800
C1681       C  0.66341733  0.61377769  0.15469143     0.04900
C1682       C  0.63279272  0.62432498  0.16515014    -0.11300
C1683       C  0.61381761  0.64568232  0.14629787     0.02400
C1684       C  0.62548651  0.65504020  0.11634153    -0.09800
C1685       C  0.65664624  0.64620035  0.10668977     0.04900
C1686       C  0.67544213  0.62569024  0.12578800    -0.09200
H1687       H  0.62403895  0.61589597  0.18790333     0.10500
H1688       H  0.61156878  0.67203043  0.10180781     0.08000
H1689       H  0.69986467  0.61986420  0.11841284     0.07800
C1690       C  0.59900149  0.67089590  0.33179572    -0.14700
C1691       C  0.60216096  0.70041140  0.31814624    -0.29900
H1692       H  0.57639150  0.65745199  0.33060169     0.14300
H1693       H  0.62598555  0.71153239  0.31684809     0.14900
C1694       C  0.58907906  0.82955314  0.30392925    -0.14700
C1695       C  0.60079051  0.82900215  0.33420907    -0.29800
H1696       H  0.59999956  0.84540515  0.28648421     0.14300
H1697       H  0.59033860  0.81148535  0.35059049     0.14900
C1698       C  0.60576631  0.79565317  0.17692540    -0.14700
C1699       C  0.63671343  0.80225945  0.18443076    -0.29900
H1700       H  0.59510457  0.80638090  0.15560209     0.14300
H1701       H  0.64655808  0.79335930  0.20689232     0.14900
C1702       C  0.57968353  0.66861371  0.19000431    -0.14700
C1703       C  0.58425170  0.66262484  0.15860647    -0.29900
H1704       H  0.59519586  0.65720985  0.20752894     0.14300
H1705       H  0.56932721  0.67565148  0.14151354     0.14900
C1706       C  0.93218981  0.80197424  0.29561547    -0.14700
C1707       C  0.90004276  0.79941960  0.29271839    -0.29900
H1708       H  0.94241906  0.82313488  0.30835846     0.14300
H1709       H  0.88948273  0.77722002  0.28215884     0.14900
C1710       C  0.93628447  0.66095211  0.33114869    -0.14700
C1711       C  0.94286927  0.66136516  0.29981433    -0.29900
H1712       H  0.95109328  0.67622004  0.34672302     0.14300
H1713       H  0.92838048  0.64694816  0.28327994     0.14900
C1714       C  0.93039482  0.65795833  0.14756738    -0.14700
C1715       C  0.92453030  0.66546848  0.17828186    -0.29900
H1716       H  0.95073896  0.66907560  0.13555084     0.14300
H1717       H  0.90221966  0.65786267  0.18946837     0.14900
C1718       C  0.94354546  0.79185110  0.16140908    -0.14700
C1719       C  0.92449254  0.81465760  0.17482723    -0.29900
H1720       H  0.94176233  0.78638934  0.13610252     0.14300
H1721       H  0.92782456  0.82101272  0.19984982     0.14900
C1722       C  0.83544043  0.58551258  0.33177137    -0.14700
C1723       C  0.84092339  0.56708118  0.30516197    -0.29900
H1724       H  0.81200329  0.58268285  0.34336676     0.14300
H1725       H  0.86362527  0.56973726  0.29229966     0.14900
C1726       C  0.68621309  0.59052284  0.31075960    -0.14700
C1727       C  0.71399454  0.59549672  0.29502404    -0.29900
H1728       H  0.67356424  0.56704595  0.30881482     0.14300
H1729       H  0.72533263  0.61973769  0.29595570     0.14900
C1730       C  0.70359582  0.56950700  0.16080777    -0.14700
C1731       C  0.68394984  0.59198890  0.17462827    -0.29900
H1732       H  0.70220093  0.56554158  0.13507899     0.14300
H1733       H  0.68328297  0.59475274  0.20049665     0.14900
C1734       C  0.83864315  0.58014644  0.14353546    -0.14700
C1735       C  0.83276951  0.58574258  0.17468688    -0.29900
H1736       H  0.82472060  0.56190263  0.13042912     0.14300
H1737       H  0.84404467  0.60664858  0.18657797     0.14900
C1738       C  0.69023762  0.91323812  0.31923486    -0.14700
C1739       C  0.72205371  0.91107201  0.31268769    -0.29900
H1740       H  0.67618993  0.93385923  0.31076460     0.14300
H1741       H  0.73497243  0.88889516  0.31917869     0.14900
C1742       C  0.84179638  0.93749850  0.32796700    -0.14700
C1743       C  0.85988631  0.91416376  0.31333990    -0.29900
H1744       H  0.83344142  0.93405203  0.35248137     0.14300
H1745       H  0.86887393  0.91903848  0.28923959     0.14900
C1746       C  0.82482229  0.92725326  0.16524349    -0.14700
C1747       C  0.84896422  0.90741288  0.17468753    -0.29900
H1748       H  0.81279636  0.92270304  0.14263846     0.14300
H1749       H  0.86068156  0.91300053  0.19735455     0.14900
C1750       C  0.70858323  0.91497611  0.20293934    -0.14700
C1751       C  0.71996970  0.88994857  0.18476168    -0.29900
H1752       H  0.68271255  0.91956663  0.20481138     0.14300
H1753       H  0.74593340  0.88801505  0.18059044     0.14900
C1754       C  0.82159546  0.66880356  0.05587337    -0.14700
C1755       C  0.85365833  0.66427128  0.05846966    -0.29900
H1756       H  0.80534926  0.65468736  0.07069490     0.14300
H1757       H  0.86979939  0.68031676  0.04537627     0.14900
C1758       C  0.82607884  0.80556777  0.10704776    -0.14700
C1759       C  0.81910082  0.80979439  0.07604038    -0.29900
H1760       H  0.81758046  0.78333491  0.11895288     0.14300
H1761       H  0.82976411  0.83058538  0.06339744     0.14900
C1762       C  0.69046370  0.80833491  0.06389337    -0.14700
C1763       C  0.70740554  0.82113638  0.08830797    -0.29900
H1764       H  0.66412940  0.80774724  0.06547386     0.14300
H1765       H  0.73376524  0.82157143  0.08672695     0.14900
C1766       C  0.69744753  0.68093815  0.08254552    -0.14700
C1767       C  0.67103323  0.66215365  0.07885832    -0.29900
H1768       H  0.70865866  0.68354569  0.10612923     0.14300
H1769       H  0.65765716  0.66204678  0.05633165     0.14900
C1770       C  0.82349789  0.82254079  0.40533002    -0.14700
C1771       C  0.81718749  0.81684477  0.37438445    -0.29900
H1772       H  0.84056220  0.84187049  0.41217697     0.14300
H1773       H  0.80202823  0.79601086  0.36733372     0.14900
C1774       C  0.85435829  0.67719108  0.41308898    -0.14700
C1775       C  0.82327921  0.68147177  0.42135950    -0.29900
H1776       H  0.87203435  0.69351658  0.42380036     0.14300
H1777       H  0.80470423  0.66600860  0.41115263     0.14900
C1778       C  0.69901671  0.69203010  0.41674769    -0.14700
C1779       C  0.70401811  0.68370543  0.38618354    -0.29900
H1780       H  0.67929104  0.68090748  0.42972455     0.14300
H1781       H  0.72492451  0.69290662  0.37360880     0.14900
C1782       C  0.69700214  0.83561134  0.40819703    -0.14700
C1783       C  0.68623844  0.81917832  0.43342765    -0.29900
H1784       H  0.72292418  0.83814718  0.40510959     0.14300
H1785       H  0.66054379  0.81714714  0.43785677     0.14900
O1786       O  0.73336867  0.78913244  0.95958800    -0.78400
O1787       O  0.78533257  0.80446026  0.54308194    -0.78400
O1788       O  0.71937010  0.78398742  0.53793846    -0.78400
O1789       O  0.79735111  0.78512445  0.95623942    -0.78400
O1790       O  0.74923022  0.76113857  0.57631830    -0.78500
O1791       O  0.77217829  0.76541330  0.91296793    -0.78400
O1792       O  0.83467988  0.79541632  0.52469626    -0.78400
O1793       O  0.68729194  0.76374239  0.96424453    -0.78400
C1794       C  0.70336747  0.78836737  0.95477196     1.11300
C1795       C  0.81534984  0.81088059  0.54345847     1.11200
C1796       C  0.72675751  0.78042863  0.56781912     1.11300
C1797       C  0.79181440  0.78578027  0.92573800     1.11200
O1798       O  0.77128354  0.70291090  0.93758343    -0.78400
O1799       O  0.75341927  0.71054061  0.53387287    -0.78500
O1800       O  0.70154468  0.69379077  0.96302943    -0.78400
O1801       O  0.83430081  0.72462311  0.51117408    -0.78400
O1802       O  0.80866082  0.74072679  0.55458080    -0.78400
O1803       O  0.71758552  0.72735300  0.92567027    -0.78400
O1804       O  0.81776099  0.71554857  0.95622106    -0.78400
O1805       O  0.70493366  0.72431245  0.52313442    -0.78400
Co1806     Co  0.75494176  0.74646348  0.95031582     1.51500
Co1807     Co  0.76871298  0.75854027  0.53602460     1.51700
Co1808     Co  0.72892606  0.75592165  0.49722773     1.51600
Co1809     Co  0.80234935  0.74814269  0.99018441     1.51500
O1810       O  0.75009009  0.73198582  0.99339996    -1.40300
C1811       C  0.80066596  0.69725985  0.93853490     1.11200
C1812       C  0.72340334  0.70426807  0.53600549     1.11300
C1813       C  0.70291947  0.70134502  0.93410111     1.11200
C1814       C  0.82784724  0.72141955  0.54012788     1.11200
O1815       O  0.82845603  0.97011637  0.71507128    -0.78400
O1816       O  0.81039674  0.53971217  0.74757993    -0.78400
O1817       O  0.79357005  0.52930997  0.67803966    -0.78400
O1818       O  0.79134287  0.97659057  0.81792239    -0.78400
O1819       O  0.78765604  0.57911700  0.69973304    -0.78500
O1820       O  0.82796247  0.96623096  0.78110787    -0.78400
O1821       O  0.78146934  0.53868273  0.79188913    -0.78400
O1822       O  0.79357553  0.98340850  0.67889153    -0.78400
C1823       C  0.81880618  0.96764489  0.68653749     1.11300
C1824       C  0.80745251  0.54680143  0.77704857     1.11200
C1825       C  0.80101715  0.56008636  0.67954460     1.11300
C1826       C  0.81749652  0.96251973  0.80912451     1.11200
O1827       O  0.76464893  0.93666449  0.77821809    -0.78400
O1828       O  0.72913260  0.55175963  0.69323846    -0.78500
O1829       O  0.73281549  0.99026076  0.71075896    -0.78400
O1830       O  0.71448759  0.53889077  0.76518393    -0.78400
O1831       O  0.75141328  0.57352526  0.75155630    -0.78400
O1832       O  0.76278917  0.94517286  0.71461731    -0.78400
O1833       O  0.72908951  0.97617852  0.78623404    -0.78400
O1834       O  0.73516705  0.52157391  0.64949094    -0.78400
Co1835     Co  0.79599229  0.95793714  0.74741770     1.51500
Co1836     Co  0.77101493  0.54191156  0.72052065     1.51700
Co1837     Co  0.75128047  0.50358975  0.68833457     1.51600
Co1838     Co  0.74515749  0.50527660  0.78044350     1.51500
O1839       O  0.76043008  0.49579903  0.73477213    -1.40300
C1840       C  0.73648802  0.94597229  0.78645901     1.11200
C1841       C  0.72320836  0.54693816  0.66310563     1.11300
C1842       C  0.73639911  0.95943744  0.70729203     1.11200
C1843       C  0.72450991  0.56807848  0.76414433     1.11200
O1844       O  0.93900281  0.71842456  0.71295532    -0.78400
O1845       O  0.59267809  0.74938211  0.77428468    -0.78400
O1846       O  0.55287841  0.72907705  0.67510907    -0.78400
O1847       O  0.97686449  0.71093005  0.80709407    -0.78400
O1848       O  0.57145536  0.71969694  0.72140286    -0.78500
O1849       O  0.97376489  0.69167248  0.75861958    -0.78400
O1850       O  0.55278470  0.72504440  0.79954193    -0.78400
O1851       O  0.98771275  0.70204894  0.69466628    -0.78400
C1852       C  0.95662860  0.69978448  0.69512318     1.11300
C1853       C  0.58224586  0.72695076  0.79214447     1.11200
C1854       C  0.57073243  0.71204885  0.69201075     1.11300
C1855       C  0.96578239  0.68965995  0.78743469     1.11200
O1856       O  0.94419773  0.75599373  0.77302400    -0.78400
O1857       O  0.60693689  0.77630471  0.71581993    -0.78500
O1858       O  0.98992185  0.76521717  0.67526001    -0.78400
O1859       O  0.56069455  0.79578517  0.80576914    -0.78400
O1860       O  0.57134699  0.81252779  0.75702602    -0.78400
O1861       O  0.96522566  0.78040182  0.71793508    -0.78400
O1862       O  0.98164947  0.78075820  0.80314047    -0.78400
O1863       O  0.56254701  0.79047566  0.68857982    -0.78400
Co1864     Co  0.97229652  0.73591788  0.73834442     1.51500
Co1865     Co  0.56859668  0.76737467  0.73792662     1.51700
Co1866     Co  0.52634617  0.75860935  0.70179765     1.51600
Co1867     Co  0.52356740  0.76352731  0.80021275     1.51500
O1868       O  0.52444985  0.76541120  0.75174879    -1.40300
C1869       C  0.95270178  0.77850127  0.79314880     1.11200
C1870       C  0.59333982  0.79245374  0.69375195     1.11300
C1871       C  0.96948177  0.78335091  0.68819724     1.11200
C1872       C  0.57562281  0.81496587  0.78694002     1.11200
C1873       C  0.89224172  0.65475039  0.65315568     0.04900
C1874       C  0.87225434  0.62753207  0.65600389    -0.11300
C1875       C  0.84656422  0.62281459  0.63468767     0.02400
C1876       C  0.84160794  0.64521436  0.61016484    -0.09800
C1877       C  0.86186560  0.67269588  0.60743998     0.04900
C1878       C  0.88731068  0.67724024  0.62863116    -0.09200
H1879       H  0.87493150  0.61201617  0.67673462     0.10500
H1880       H  0.82040064  0.64293964  0.59521678     0.08000
H1881       H  0.90153283  0.69977479  0.62769170     0.07800
C1882       C  0.90416886  0.84337996  0.65859416     0.04900
C1883       C  0.89442323  0.83265558  0.62797662    -0.11300
C1884       C  0.86934154  0.84887738  0.61142646     0.02400
C1885       C  0.85513044  0.87758868  0.62576211    -0.09800
C1886       C  0.86567768  0.88909146  0.65627213     0.04900
C1887       C  0.88977213  0.87132308  0.67213092    -0.09200
H1888       H  0.90477768  0.81034969  0.61781583     0.10500
H1889       H  0.83591325  0.89031512  0.61370121     0.08000
H1890       H  0.89724376  0.87907398  0.69569718     0.07800
C1891       C  0.85763878  0.64992608  0.88076684     0.04900
C1892       C  0.84012229  0.62478655  0.86486288    -0.11300
C1893       C  0.85080288  0.61071131  0.83563821     0.02400
C1894       C  0.88031484  0.62270441  0.82228861    -0.09800
C1895       C  0.89871900  0.64750919  0.83871675     0.04900
C1896       C  0.88709582  0.65989252  0.86796428    -0.09200
H1897       H  0.81777993  0.61617104  0.87505584     0.10500
H1898       H  0.88879831  0.61312002  0.79970720     0.08000
H1899       H  0.90052292  0.67927182  0.88037119     0.07800
C1900       C  0.69791817  0.89307739  0.65541774     0.04900
C1901       C  0.70498627  0.87949807  0.62528907    -0.11300
C1902       C  0.68935200  0.85082786  0.61475429     0.02400
C1903       C  0.66540730  0.83676826  0.63360527    -0.09800
C1904       C  0.65836201  0.84983921  0.66380272     0.04900
C1905       C  0.67453391  0.87807359  0.67472789    -0.09200
H1906       H  0.72463490  0.88959132  0.61119199     0.10500
H1907       H  0.65439771  0.81375169  0.62568111     0.08000
H1908       H  0.67035604  0.88687402  0.69866896     0.07800
C1909       C  0.69023713  0.84180870  0.88063892     0.04900
C1910       C  0.71010884  0.86125229  0.86142084    -0.11300
C1911       C  0.69894987  0.87383544  0.83241833     0.02400
C1912       C  0.66745852  0.86593473  0.82183251    -0.09800
C1913       C  0.64727549  0.84528778  0.84010380     0.04900
C1914       C  0.65890094  0.83398513  0.86969442    -0.09200
H1915       H  0.73446628  0.86669562  0.86911051     0.10500
H1916       H  0.65951887  0.87491315  0.79902135     0.08000
H1917       H  0.64384520  0.81742080  0.88327905     0.07800
C1918       C  0.67503860  0.65764942  0.85856048     0.04900
C1919       C  0.68675907  0.63153379  0.83985103    -0.11300
C1920       C  0.66662548  0.61613744  0.81707862     0.02400
C1921       C  0.63501197  0.62747784  0.81262644    -0.09800
C1922       C  0.62410779  0.65498018  0.82999815     0.04900
C1923       C  0.64356986  0.66903001  0.85381775    -0.09200
H1924       H  0.71150804  0.62315340  0.84299475     0.10500
H1925       H  0.62033414  0.61721494  0.79348573     0.08000
H1926       H  0.63524278  0.69086464  0.86663478     0.07800
C1927       C  0.82758830  0.82868712  0.85392210     0.04900
C1928       C  0.84980811  0.80813721  0.83822809    -0.11300
C1929       C  0.87351202  0.82129170  0.81850095     0.02400
C1930       C  0.87407625  0.85548929  0.81325451    -0.09800
C1931       C  0.85093865  0.87660661  0.82750502     0.04900
C1932       C  0.82794771  0.86291917  0.84851997    -0.09200
H1933       H  0.84904416  0.78162226  0.84196728     0.10500
H1934       H  0.89168437  0.86542625  0.79684627     0.08000
H1935       H  0.80927166  0.87820432  0.85940745     0.07800
C1936       C  0.66948815  0.62193016  0.63714781     0.04900
C1937       C  0.64184006  0.63761427  0.65002421    -0.11300
C1938       C  0.62482086  0.66198369  0.63292715     0.02400
C1939       C  0.63597341  0.67026986  0.60240242    -0.09800
C1940       C  0.66476662  0.65691587  0.58986876     0.04900
C1941       C  0.68103769  0.63215273  0.60710279    -0.09200
H1942       H  0.63355121  0.63037509  0.67352507     0.10500
H1943       H  0.62350316  0.68946737  0.58934263     0.08000
H1944       H  0.70308255  0.62159981  0.59776634     0.07800
C1945       C  0.59763174  0.67488015  0.81745070    -0.14700
C1946       C  0.60553804  0.70419568  0.80535017    -0.29900
H1947       H  0.57319728  0.66531108  0.81635772     0.14300
H1948       H  0.63072629  0.71166294  0.80454378     0.14900
C1949       C  0.60199936  0.83680036  0.79943012    -0.14700
C1950       C  0.61528393  0.83204615  0.82857288    -0.29800
H1951       H  0.61325111  0.85327564  0.78278651     0.14300
H1952       H  0.60342350  0.81465755  0.84411007     0.14900
C1953       C  0.61202042  0.81458457  0.67406550    -0.14700
C1954       C  0.63758692  0.83115443  0.68546819    -0.29900
H1955       H  0.60401935  0.81804665  0.64990534     0.14300
H1956       H  0.64366474  0.83029665  0.71039895     0.14900
C1957       C  0.59162638  0.68549488  0.67840046    -0.14700
C1958       C  0.59713740  0.68163263  0.64671525    -0.29900
H1959       H  0.60602406  0.67193123  0.69541196     0.14300
H1960       H  0.58337997  0.69679662  0.63038570     0.14900
C1961       C  0.92880027  0.80255993  0.80585136    -0.14700
C1962       C  0.89677450  0.79849885  0.80278981    -0.29900
H1963       H  0.93789902  0.82376260  0.81963948     0.14300
H1964       H  0.88735473  0.77606768  0.79132470     0.14900
C1965       C  0.92947668  0.66351494  0.82723938    -0.14700
C1966       C  0.94036512  0.66513705  0.79700041    -0.29900
H1967       H  0.94245350  0.67843617  0.84492134     0.14300
H1968       H  0.92811425  0.65113640  0.77822948     0.14900
C1969       C  0.91309149  0.66397810  0.67963668    -0.14700
C1970       C  0.94209702  0.67604731  0.67363291    -0.29900
H1971       H  0.90256977  0.66604480  0.70329421     0.14300
H1972       H  0.95321432  0.67234636  0.65040505     0.14900
C1973       C  0.95044703  0.80540564  0.66776313    -0.14700
C1974       C  0.92651084  0.82425349  0.67913761    -0.29900
H1975       H  0.95516151  0.80453190  0.64240111     0.14300
H1976       H  0.92303517  0.82583809  0.70471875     0.14900
C1977       C  0.82856608  0.58509569  0.82027557    -0.14700
C1978       C  0.83327350  0.56799102  0.79263090    -0.29900
H1979       H  0.80574691  0.58088648  0.83233940     0.14300
H1980       H  0.85540146  0.57180060  0.77938103     0.14900
C1981       C  0.67957031  0.59007161  0.79608499    -0.14700
C1982       C  0.70727879  0.59494667  0.78040425    -0.29900
H1983       H  0.66653907  0.56682621  0.79384411     0.14300
H1984       H  0.71908287  0.61896503  0.78178664     0.14900
C1985       C  0.70313757  0.57052756  0.64423358    -0.14700
C1986       C  0.68742413  0.59699933  0.65677641    -0.29900
H1987       H  0.70204247  0.56620413  0.61838030     0.14300
H1988       H  0.68699818  0.60026349  0.68278913     0.14900
C1989       C  0.82050007  0.60024734  0.64306141    -0.14700
C1990       C  0.82625256  0.57282565  0.65933957    -0.29900
H1991       H  0.79574815  0.60893845  0.64016075     0.14300
H1992       H  0.85039537  0.56232948  0.66108234     0.14900
C1993       C  0.72163888  0.89426086  0.81346581    -0.14700
C1994       C  0.71253341  0.92217537  0.79890726    -0.29900
H1995       H  0.74715837  0.88860320  0.81513088     0.14300
H1996       H  0.68747058  0.92971263  0.79977198     0.14900
C1997       C  0.83046016  0.93541493  0.82891601    -0.14700
C1998       C  0.84866065  0.91118565  0.81565829    -0.29900
H1999       H  0.81969115  0.93203095  0.85226831     0.14300
H2000       H  0.85954109  0.91557015  0.79248076     0.14900
C2001       C  0.83327661  0.94268451  0.66391868    -0.14700
C2002       C  0.85148832  0.91760761  0.67492094    -0.29900
H2003       H  0.82676157  0.94344243  0.63884788     0.14300
H2004       H  0.85678911  0.91792873  0.70033611     0.14900
C2005       C  0.71116590  0.93986384  0.69179366    -0.14700
C2006       C  0.71966245  0.91842901  0.66868715    -0.29900
H2007       H  0.68609541  0.94281771  0.69928238     0.14300
H2008       H  0.74457692  0.91844690  0.65997004     0.14900
C2009       C  0.84284136  0.69478602  0.55736982    -0.14700
C2010       C  0.85253094  0.69997941  0.58717680    -0.29900
H2011       H  0.84527503  0.67045589  0.54584569     0.14300
H2012       H  0.85242806  0.72499910  0.59751976     0.14900
C2013       C  0.85824311  0.83332197  0.58028619    -0.14700
C2014       C  0.82775699  0.83468985  0.56851349    -0.29900
H2015       H  0.87493792  0.81606720  0.56881660     0.14300
H2016       H  0.80997033  0.84990247  0.58093114     0.14900
C2017       C  0.71092826  0.80024839  0.59227159    -0.14700
C2018       C  0.70227948  0.83172801  0.58765386    -0.29900
H2019       H  0.70908248  0.78958832  0.61600598     0.14300
H2020       H  0.70763360  0.84399659  0.56524972     0.14900
C2021       C  0.71058838  0.67696611  0.55581024    -0.14700
C2022       C  0.67847883  0.67270542  0.56069460    -0.29900
H2023       H  0.72788679  0.66427611  0.57063013     0.14300
H2024       H  0.66175686  0.68665964  0.54618382     0.14900
C2025       C  0.80808642  0.81099600  0.90617946    -0.14700
C2026       C  0.80337837  0.81290528  0.87455087    -0.29900
H2027       H  0.82693202  0.82577297  0.91731344     0.14300
H2028       H  0.78570721  0.79697725  0.86301315     0.14900
C2029       C  0.84536349  0.66858392  0.90947163    -0.14700
C2030       C  0.81386575  0.67128951  0.91685975    -0.29900
H2031       H  0.86239885  0.68438291  0.92237952     0.14300
H2032       H  0.79612229  0.65717911  0.90324117     0.14900
C2033       C  0.68537187  0.68084546  0.91109808    -0.14700
C2034       C  0.69601396  0.67503371  0.88152123    -0.29900
H2035       H  0.66275657  0.66977155  0.91891750     0.14300
H2036       H  0.71986831  0.68335510  0.87412007     0.14900
C2037       C  0.70471090  0.82695882  0.90984239    -0.14700
C2038       C  0.68768591  0.81195787  0.93293757    -0.29900
H2039       H  0.73077146  0.82601891  0.91096172     0.14300
H2040       H  0.66165926  0.81250104  0.93265493     0.14900
loop_ 
_geom_bond_atom_site_label_1 
_geom_bond_atom_site_label_2 
_geom_bond_distance 
_geom_bond_site_symmetry_2 
_ccdc_geom_bond_type 
O1            C9   1.253       .  A
O1          Co21   1.960       .  S
O2           C10   1.263       .  A
O2          Co22   1.913       .  S
O3           C11   1.285       .  A
O3          Co23   2.045   1_554  S
O4           C12   1.268       .  A
O4          Co24   2.026       .  S
O5           C11   1.265       .  A
O5          Co22   1.963       .  S
O6           C12   1.260       .  A
O6          Co21   1.965       .  S
O7           C10   1.294       .  A
O7         Co279   2.114   1_554  S
O8            C9   1.264       .  A
O8         Co278   2.029       .  S
C9          C253   1.485       .  S
C10         C229   1.493       .  S
C11         C232   1.484       .  S
C12         C240   1.487       .  S
O13          C26   1.264       .  A
O13         Co21   2.018       .  S
O14          C27   1.264       .  A
O14         Co22   2.017       .  S
O15          C28   1.269       .  A
O15        Co278   1.963       .  S
O16          C29   1.275       .  A
O16        Co279   1.912   1_554  S
O17          C29   1.290       .  A
O17         Co22   2.080       .  S
O18          C28   1.284       .  A
O18         Co21   2.040       .  S
O19          C26   1.253       .  A
O19         Co24   1.974       .  S
O20          C27   1.263       .  A
O20         Co23   2.002   1_554  S
Co21         O25   2.076       .  S
Co22        O280   1.996   1_554  S
Co23        O263   2.039       .  S
Co23        O270   1.966       .  S
Co23        O280   2.066       .  S
Co24        O262   2.156       .  S
Co24        O271   1.945       .  S
Co24         O25   2.114       .  S
O25        Co277   1.993       .  S
O25        Co278   2.079       .  S
C26         C245   1.475       .  S
C27         C236   1.497       .  S
C28         C248   1.470       .  S
C29         C224   1.470       .  S
O30          C38   1.261       .  A
O30         Co50   1.876       .  S
O31          C39   1.267       .  A
O31         Co51   1.989       .  S
O32          C40   1.298       .  A
O32         Co52   2.081       .  S
O33          C41   1.280       .  A
O33        Co563   2.032       .  S
O34          C40   1.273       .  A
O34         Co51   1.888       .  S
O35          C41   1.268       .  A
O35         Co50   1.967       .  S
O36          C39   1.275       .  A
O36         Co53   2.028       .  S
O37          C38   1.295       .  A
O37        Co562   2.116       .  S
C38         C216   1.469       .  S
C39         C193   1.494       .  S
C40         C205   1.468       .  S
C41         C212   1.480       .  S
O42          C55   1.260       .  A
O42         Co50   2.003       .  S
O43          C56   1.273       .  A
O43         Co51   2.047       .  S
O44          C57   1.268       .  A
O44        Co562   1.890       .  S
O45          C58   1.263       .  A
O45         Co53   1.958       .  S
O46          C58   1.267       .  A
O46         Co51   1.981       .  S
O47          C57   1.302       .  A
O47         Co50   2.126       .  S
O48          C55   1.260       .  A
O48        Co563   1.990       .  S
O49          C56   1.235       .  A
O49         Co52   1.937       .  S
Co50        O564   1.984       .  S
Co51         O54   1.939       .  S
Co52        O547   1.921   1_545  S
Co52        O554   2.061   1_545  S
Co52         O54   2.108       .  S
Co53        O543   1.976   1_545  S
Co53        O558   2.033   1_545  S
Co53         O54   2.044       .  S
O54        Co560   1.909   1_545  S
C55         C209   1.478       .  S
C56         C200   1.475       .  S
C57         C220   1.483       .  S
C58         C197   1.455       .  S
O59          C67   1.271       .  A
O59         Co79   2.012       .  S
O60          C68   1.275       .  A
O60         Co80   1.847       .  S
O61          C69   1.268       .  A
O61         Co81   2.003       .  S
O62          C70   1.254       .  A
O62       Co1102   1.983       .  S
O63          C69   1.268       .  A
O63         Co80   1.982       .  S
O64          C70   1.256       .  A
O64         Co79   2.011       .  S
O65          C68   1.310       .  A
O65         Co82   2.137       .  S
O66          C67   1.266       .  A
O66       Co1101   1.971       .  S
C67         C185   1.470       .  S
C68         C161   1.473       .  S
C69         C172   1.496       .  S
C70         C181   1.484       .  S
O71          C84   1.275       .  A
O71         Co79   1.882       .  S
O72          C85   1.271       .  A
O72         Co80   2.018       .  S
O73          C86   1.270       .  A
O73       Co1101   2.006       .  S
O74          C87   1.247       .  A
O74         Co82   1.962       .  S
O75          C87   1.258       .  A
O75         Co80   2.029       .  S
O76          C86   1.266       .  A
O76         Co79   1.974       .  S
O77          C84   1.308       .  A
O77       Co1102   2.132       .  S
O78          C85   1.265       .  A
O78         Co81   1.981       .  S
Co79       O1103   1.959       .  S
Co80         O83   1.952       .  S
Co81       O1086   2.130   1_455  S
Co81       O1093   1.968   1_455  S
Co81         O83   2.089       .  S
Co82       O1082   2.025   1_455  S
Co82       O1097   1.965   1_455  S
Co82         O83   2.092       .  S
O83       Co1099   1.957   1_455  S
C84         C176   1.493       .  S
C85         C168   1.472       .  S
C86         C188   1.485       .  S
C87         C164   1.475       .  S
C88         C184   1.469       .  S
C88          C89   1.401       .  A
C88          C93   1.398       .  A
C89          C90   1.400       .  A
C89          H94   1.086       .  S
C90         C204   1.479       .  S
C90          C91   1.409       .  A
C91          C92   1.413       .  A
C91          H95   1.076       .  S
C92         C225   1.491       .  S
C92          C93   1.401       .  A
C93          H96   1.087       .  S
C97         C189   1.500       .  S
C97          C98   1.421       .  A
C97         C102   1.407       .  A
C98          C99   1.413       .  A
C98         H103   1.084       .  S
C99         C228   1.494       .  S
C99         C100   1.401       .  A
C100        C101   1.403       .  A
C100        H104   1.084       .  S
C101        C217   1.474       .  S
C101        C102   1.397       .  A
C102        H105   1.088       .  S
C106        C244   1.484       .  S
C106        C107   1.406       .  A
C106        C111   1.398       .  A
C107        C108   1.410       .  A
C107        H112   1.078       .  S
C108        C192   1.500       .  S
C108        C109   1.418       .  A
C109        C110   1.413       .  A
C109        H113   1.082       .  S
C110        C180   1.486       .  S
C110        C111   1.401       .  A
C111        H114   1.085       .  S
C115        C221   1.488       .  S
C115        C116   1.415       .  A
C115        C120   1.402       .  A
C116        C117   1.418       .  A
C116        H121   1.084       .  S
C117        C233   1.498       .  S
C117        C118   1.407       .  A
C118        C119   1.400       .  A
C118        H122   1.086       .  S
C119        C169   1.477       .  S
C119        C120   1.397       .  A
C120        H123   1.074       .  S
C124        C252   1.496       .  S
C124        C125   1.407       .  A
C124        C129   1.409       .  A
C125        C126   1.408       .  A
C125        H130   1.086       .  S
C126        C208   1.482       .  S
C126        C127   1.401       .  A
C127        C128   1.404       .  A
C127        H131   1.084       .  S
C128        C165   1.483       .  S
C128        C129   1.408       .  A
C129        H132   1.079       .  S
C133        C249   1.480       .  S
C133        C134   1.404       .  A
C133        C138   1.409       .  A
C134        C135   1.397       .  A
C134        H139   1.084       .  S
C135        C196   1.461       .  S
C135        C136   1.395       .  A
C136        C137   1.398       .  A
C136        H140   1.080       .  S
C137        C160   1.481       .  S
C137        C138   1.408       .  A
C138        H141   1.081       .  S
C142        C241   1.492       .  S
C142        C143   1.416       .  A
C142        C147   1.402       .  A
C143        C144   1.416       .  A
C143        H148   1.084       .  S
C144        C177   1.498       .  S
C144        C145   1.410       .  A
C145        C146   1.408       .  A
C145        H149   1.073       .  S
C146        C213   1.495       .  S
C146        C147   1.400       .  A
C147        H150   1.075       .  S
C151        C201   1.481       .  S
C151        C152   1.405       .  A
C151        C156   1.415       .  A
C152        C153   1.404       .  A
C152        H157   1.079       .  S
C153        C173   1.501       .  S
C153        C154   1.415       .  A
C154        C155   1.409       .  A
C154        H158   1.084       .  S
C155        C237   1.502       .  S
C155        C156   1.409       .  A
C156        H159   1.084       .  S
C160        C161   1.344       .  D
C160        H162   1.085       .  S
C161        H163   1.080       .  S
C164        C165   1.348       .  D
C164        H166   1.086       .  S
C165        H167   1.088       .  S
C168        C169   1.343       .  D
C168        H170   1.077       .  S
C169        H171   1.077       .  S
C172        C173   1.363       .  D
C172        H174   1.083       .  S
C173        H175   1.086       .  S
C176        C177   1.350       .  D
C176        H178   1.086       .  S
C177        H179   1.087       .  S
C180        C181   1.343       .  D
C180        H182   1.086       .  S
C181        H183   1.087       .  S
C184        C185   1.342       .  D
C184        H186   1.087       .  S
C185        H187   1.087       .  S
C188        C189   1.362       .  D
C188        H190   1.092       .  S
C189        H191   1.093       .  S
C192        C193   1.351       .  D
C192        H194   1.083       .  S
C193        H195   1.082       .  S
C196        C197   1.341       .  D
C196        H198   1.087       .  S
C197        H199   1.088       .  S
C200        C201   1.336       .  D
C200        H202   1.083       .  S
C201        H203   1.085       .  S
C204        C205   1.341       .  D
C204        H206   1.096       .  S
C205        H207   1.097       .  S
C208        C209   1.343       .  D
C208        H210   1.089       .  S
C209        H211   1.090       .  S
C212        C213   1.348       .  D
C212        H214   1.067       .  S
C213        H215   1.075       .  S
C216        C217   1.340       .  D
C216        H218   1.083       .  S
C217        H219   1.085       .  S
C220        C221   1.344       .  D
C220        H222   1.076       .  S
C221        H223   1.077       .  S
C224        C225   1.341       .  D
C224        H226   1.088       .  S
C225        H227   1.093       .  S
C228        C229   1.348       .  D
C228        H230   1.085       .  S
C229        H231   1.084       .  S
C232        C233   1.348       .  D
C232        H234   1.086       .  S
C233        H235   1.090       .  S
C236        C237   1.353       .  D
C236        H238   1.090       .  S
C237        H239   1.089       .  S
C240        C241   1.345       .  D
C240        H242   1.083       .  S
C241        H243   1.084       .  S
C244        C245   1.342       .  D
C244        H246   1.091       .  S
C245        H247   1.089       .  S
C248        C249   1.346       .  D
C248        H250   1.087       .  S
C249        H251   1.089       .  S
C252        C253   1.353       .  D
C252        H254   1.085       .  S
C253        H255   1.081       .  S
O256        C264   1.264       .  A
O256       Co276   1.980       .  S
O257        C265   1.283       .  A
O257       Co277   1.887       .  S
O258        C266   1.278       .  A
O258       Co278   2.023       .  S
O259        C267   1.270       .  A
O259       Co279   2.023       .  S
O260        C266   1.274       .  A
O260       Co277   1.964       .  S
O261        C267   1.259       .  A
O261       Co276   1.964       .  S
O262        C265   1.316       .  A
O263        C264   1.272       .  A
C264        C508   1.506       .  S
C265        C484   1.497       .  S
C266        C487   1.475       .  S
C267        C495   1.479       .  S
O268        C281   1.276       .  A
O268       Co276   2.036       .  S
O269        C282   1.279       .  A
O269       Co277   2.043       .  S
O270        C283   1.267       .  A
O271        C284   1.235       .  A
O272        C284   1.249       .  A
O272       Co277   2.029       .  S
O273        C283   1.272       .  A
O273       Co276   1.996       .  S
O274        C281   1.274       .  A
O274       Co279   2.003       .  S
O275        C282   1.269       .  A
O275       Co278   1.983       .  S
Co276       O280   2.037       .  S
Co279       O280   2.044       .  S
C281        C500   1.505       .  S
C282        C491   1.489       .  S
C283        C503   1.457       .  S
C284        C479   1.456       .  S
O285        C293   1.267       .  A
O285       Co305   2.007       .  S
O286        C294   1.248       .  A
O286       Co306   1.981       .  S
O287        C295   1.261       .  A
O287       Co307   1.964       .  S
O288        C296   1.263       .  A
O288       Co818   1.977       .  S
O289        C295   1.268       .  A
O289       Co306   1.996       .  S
O290        C296   1.266       .  A
O290       Co305   2.003       .  S
O291        C294   1.255       .  A
O291       Co308   2.010       .  S
O292        C293   1.261       .  A
O292       Co817   1.970       .  S
C293        C471   1.480       .  S
C294        C448   1.493       .  S
C295        C460   1.458       .  S
C296        C467   1.474       .  S
O297        C310   1.266       .  A
O297       Co305   1.981       .  S
O298        C311   1.257       .  A
O298       Co306   1.994       .  S
O299        C312   1.297       .  A
O299       Co817   2.107       .  S
O300        C313   1.296       .  A
O300       Co308   2.068       .  S
O301        C313   1.269       .  A
O301       Co306   1.862       .  S
O302        C312   1.267       .  A
O302       Co305   1.852       .  S
O303        C310   1.279       .  A
O303       Co818   2.031       .  S
O304        C311   1.268       .  A
O304       Co307   2.025       .  S
Co305       O819   1.898       .  S
Co306       O309   1.910       .  S
Co307       O802   1.990   1_545  S
Co307       O809   2.022   1_545  S
Co307       O309   2.103       .  S
Co308       O798   2.011   1_545  S
Co308       O813   2.075   1_545  S
Co308       O309   2.266       .  S
O309       Co815   1.909   1_545  S
C310        C464   1.495       .  S
C311        C455   1.497       .  S
C312        C475   1.469       .  S
C313        C452   1.457       .  S
O314        C322   1.265       .  A
O314       Co334   1.876       .  S
O315        C323   1.258       .  A
O315       Co335   1.974       .  S
O316        C324   1.263       .  A
O316       Co336   2.019       .  S
O317        C325   1.272       .  A
O317      Co1357   2.015       .  S
O318        C324   1.251       .  A
O318       Co335   1.975       .  S
O319        C325   1.268       .  A
O319       Co334   2.000       .  S
O320        C323   1.252       .  A
O320       Co337   1.955       .  S
O321        C322   1.297       .  A
O321      Co1356   2.082       .  S
C322        C440   1.463       .  S
C323        C416   1.450       .  S
C324        C427   1.498       .  S
C325        C436   1.494       .  S
O326        C339   1.256       .  A
O326       Co334   1.992       .  S
O327        C340   1.268       .  A
O327       Co335   1.896       .  S
O328        C341   1.260       .  A
O328      Co1356   2.018       .  S
O329        C342   1.273       .  A
O329       Co337   2.024       .  S
O330        C342   1.272       .  A
O330       Co335   2.001       .  S
O331        C341   1.251       .  A
O331       Co334   1.959       .  S
O332        C339   1.253       .  A
O332      Co1357   1.980       .  S
O333        C340   1.294       .  A
O333       Co336   2.071       .  S
Co334      O1358   1.918       .  S
Co335       O338   1.942       .  S
Co336      O1341   2.120   1_455  S
Co336      O1348   1.983       .  S
Co336       O338   2.213       .  S
Co337      O1337   2.034   1_455  S
Co337      O1352   1.967   1_455  S
Co337       O338   2.074       .  S
O338      Co1354   1.950   1_455  S
C339        C431   1.463       .  S
C340        C423   1.469       .  S
C341        C443   1.480       .  S
C342        C419   1.505       .  S
C343        C439   1.469       .  S
C343        C344   1.401       .  A
C343        C348   1.402       .  A
C344        C345   1.396       .  A
C344        H349   1.083       .  S
C345        C459   1.464       .  S
C345        C346   1.400       .  A
C346        C347   1.398       .  A
C346        H350   1.082       .  S
C347        C480   1.467       .  S
C347        C348   1.398       .  A
C348        H351   1.090       .  S
C352        C444   1.505       .  S
C352        C353   1.420       .  A
C352        C357   1.412       .  A
C353        C354   1.416       .  A
C353        H358   1.077       .  S
C354        C483   1.505       .  S
C354        C355   1.406       .  A
C355        C356   1.403       .  A
C355        H359   1.086       .  S
C356        C472   1.482       .  S
C356        C357   1.401       .  A
C357        H360   1.067       .  S
C361        C499   1.505       .  S
C361        C362   1.414       .  A
C361        C366   1.409       .  A
C362        C363   1.421       .  A
C362        H367   1.086       .  S
C363        C447   1.497       .  S
C363        C364   1.412       .  A
C364        C365   1.407       .  A
C364        H368   1.073       .  S
C365        C435   1.502       .  S
C365        C366   1.409       .  A
C366        H369   1.080       .  S
C370        C476   1.470       .  S
C370        C371   1.405       .  A
C370        C375   1.389       .  A
C371        C372   1.407       .  A
C371        H376   1.086       .  S
C372        C488   1.491       .  S
C372        C373   1.419       .  A
C373        C374   1.406       .  A
C373        H377   1.079       .  S
C374        C424   1.481       .  S
C374        C375   1.393       .  A
C375        H378   1.089       .  S
C379        C507   1.514       .  S
C379        C380   1.403       .  A
C379        C384   1.416       .  A
C380        C381   1.408       .  A
C380        H385   1.090       .  S
C381        C463   1.504       .  S
C381        C382   1.418       .  A
C382        C383   1.418       .  A
C382        H386   1.077       .  S
C383        C420   1.514       .  S
C383        C384   1.425       .  A
C384        H387   1.080       .  S
C388        C504   1.462       .  S
C388        C389   1.401       .  A
C388        C393   1.399       .  A
C389        C390   1.403       .  A
C389        H394   1.086       .  S
C390        C451   1.456       .  S
C390        C391   1.389       .  A
C391        C392   1.389       .  A
C391        H395   1.079       .  S
C392        C415   1.457       .  S
C392        C393   1.398       .  A
C393        H396   1.085       .  S
C397        C496   1.489       .  S
C397        C398   1.409       .  A
C397        C402   1.409       .  A
C398        C399   1.400       .  A
C398        H403   1.083       .  S
C399        C432   1.471       .  S
C399        C400   1.401       .  A
C400        C401   1.401       .  A
C400        H404   1.081       .  S
C401        C468   1.481       .  S
C401        C402   1.404       .  A
C402        H405   1.087       .  S
C406        C456   1.502       .  S
C406        C407   1.422       .  A
C406        C411   1.409       .  A
C407        C408   1.423       .  A
C407        H412   1.082       .  S
C408        C428   1.501       .  S
C408        C409   1.413       .  A
C409        C410   1.401       .  A
C409        H413   1.090       .  S
C410        C492   1.493       .  S
C410        C411   1.398       .  A
C411        H414   1.076       .  S
C415        C416   1.331       .  D
C415        H417   1.082       .  S
C416        H418   1.081       .  S
C419        C420   1.366       .  D
C419        H421   1.079       .  S
C420        H422   1.082       .  S
C423        C424   1.351       .  D
C423        H425   1.086       .  S
C424        H426   1.084       .  S
C427        C428   1.352       .  D
C427        H429   1.088       .  S
C428        H430   1.090       .  S
C431        C432   1.338       .  D
C431        H433   1.088       .  S
C432        H434   1.088       .  S
C435        C436   1.358       .  D
C435        H437   1.086       .  S
C436        H438   1.083       .  S
C439        C440   1.342       .  D
C439        H441   1.079       .  S
C440        H442   1.077       .  S
C443        C444   1.358       .  D
C443        H445   1.059       .  S
C444        H446   1.072       .  S
C447        C448   1.349       .  D
C447        H449   1.078       .  S
C448        H450   1.077       .  S
C451        C452   1.333       .  D
C451        H453   1.082       .  S
C452        H454   1.081       .  S
C455        C456   1.350       .  D
C455        H457   1.080       .  S
C456        H458   1.081       .  S
C459        C460   1.337       .  D
C459        H461   1.082       .  S
C460        H462   1.082       .  S
C463        C464   1.351       .  D
C463        H465   1.094       .  S
C464        H466   1.090       .  S
C467        C468   1.346       .  D
C467        H469   1.090       .  S
C468        H470   1.091       .  S
C471        C472   1.344       .  D
C471        H473   1.084       .  S
C472        H474   1.084       .  S
C475        C476   1.336       .  D
C475        H477   1.086       .  S
C476        H478   1.089       .  S
C479        C480   1.339       .  D
C479        H481   1.089       .  S
C480        H482   1.090       .  S
C483        C484   1.353       .  D
C483        H485   1.091       .  S
C484        H486   1.088       .  S
C487        C488   1.344       .  D
C487        H489   1.090       .  S
C488        H490   1.092       .  S
C491        C492   1.351       .  D
C491        H493   1.080       .  S
C492        H494   1.080       .  S
C495        C496   1.351       .  D
C495        H497   1.086       .  S
C496        H498   1.089       .  S
C499        C500   1.358       .  D
C499        H501   1.085       .  S
C500        H502   1.084       .  S
C503        C504   1.338       .  D
C503        H505   1.088       .  S
C504        H506   1.086       .  S
C507        C508   1.355       .  D
C507        H509   1.089       .  S
C508        H510   1.086       .  S
O511        C519   1.264       .  A
O511       Co531   1.969       .  S
O512        C520   1.240       .  A
O512       Co532   1.949       .  S
O513        C521   1.257       .  A
O513       Co533   1.978   1_554  S
O514        C522   1.268       .  A
O514       Co534   2.021       .  S
O515        C521   1.251       .  A
O515       Co532   1.908       .  S
O516        C522   1.259       .  A
O516       Co531   1.968       .  S
O517        C520   1.275       .  A
O517       Co789   2.067   1_554  S
O518        C519   1.271       .  A
O518       Co788   2.024       .  S
C519        C763   1.488       .  S
C520        C739   1.502       .  S
C521        C742   1.449       .  S
C522        C750   1.483       .  S
O523        C536   1.278       .  A
O523       Co531   2.024       .  S
O524        C537   1.239       .  A
O524       Co532   1.867       .  S
O525        C538   1.265       .  A
O525       Co788   1.964       .  S
O526        C539   1.272       .  A
O526       Co789   2.051   1_554  S
O527        C539   1.238       .  A
O527       Co532   1.888       .  S
O528        C538   1.270       .  A
O528       Co531   2.005       .  S
O529        C536   1.270       .  A
O529       Co534   1.986       .  S
O530        C537   1.269       .  A
O530       Co533   1.995   1_554  S
Co531       O535   2.027       .  S
Co532       O790   1.964   1_554  S
Co533       O773   1.995       .  S
Co533       O780   1.979       .  S
Co533       O790   2.152       .  S
Co534       O772   2.110       .  S
Co534       O781   1.923       .  S
Co534       O535   2.039       .  S
O535       Co787   1.996       .  S
O535       Co788   2.047       .  S
C536        C755   1.487       .  S
C537        C746   1.441       .  S
C538        C758   1.462       .  S
C539        C734   1.471       .  S
O540        C548   1.268       .  A
O540       Co560   2.020       .  S
O541        C549   1.261       .  A
O541       Co561   1.965       .  S
O542        C550   1.267       .  A
O542       Co562   2.014       .  S
O543        C551   1.268       .  A
O544        C550   1.260       .  A
O544       Co561   1.971       .  S
O545        C551   1.280       .  A
O545       Co560   2.028       .  S
O546        C549   1.273       .  A
O546       Co563   2.038       .  S
O547        C548   1.238       .  A
C548        C726   1.467       .  S
C549        C703   1.488       .  S
C550        C715   1.477       .  S
C551        C722   1.481       .  S
O552        C565   1.257       .  A
O552       Co560   1.993       .  S
O553        C566   1.277       .  A
O553       Co561   2.015       .  S
O554        C567   1.296       .  A
O555        C568   1.262       .  A
O555       Co563   1.964       .  S
O556        C568   1.276       .  A
O556       Co561   2.022       .  S
O557        C567   1.278       .  A
O557       Co560   1.869       .  S
O558        C565   1.271       .  A
O559        C566   1.268       .  A
O559       Co562   1.979       .  S
Co561       O564   2.020       .  S
Co562       O564   2.012       .  S
Co563       O564   2.040       .  S
C565        C719   1.502       .  S
C566        C710   1.481       .  S
C567        C730   1.449       .  S
C568        C707   1.467       .  S
O569        C577   1.276       .  A
O569       Co589   1.891       .  S
O570        C578   1.260       .  A
O570       Co590   1.958       .  S
O571        C579   1.240       .  A
O571       Co591   1.962       .  S
O572        C580   1.265       .  A
O572      Co1612   2.009       .  S
O573        C579   1.265       .  A
O573       Co590   2.030       .  S
O574        C580   1.258       .  A
O574       Co589   1.990       .  S
O575        C578   1.265       .  A
O575       Co592   1.983       .  S
O576        C577   1.299       .  A
O576      Co1611   2.085       .  S
C577        C695   1.467       .  S
C578        C671   1.459       .  S
C579        C682   1.472       .  S
C580        C691   1.487       .  S
O581        C594   1.279       .  A
O581       Co589   2.013       .  S
O582        C595   1.270       .  A
O582       Co590   1.870       .  S
O583        C596   1.243       .  A
O583      Co1611   1.934       .  S
O584        C597   1.277       .  A
O584       Co592   2.032       .  S
O585        C597   1.274       .  A
O585       Co590   2.012       .  S
O586        C596   1.268       .  A
O586       Co589   2.018       .  S
O587        C594   1.272       .  A
O587      Co1612   1.983       .  S
O588        C595   1.295       .  A
O588       Co591   2.063       .  S
Co589      O1613   1.910       .  S
Co590       O593   1.909       .  S
Co591      O1596   2.064   1_455  S
Co591      O1603   1.937   1_455  S
Co591       O593   2.123       .  S
Co592      O1592   2.024   1_455  S
Co592      O1607   1.980   1_455  S
Co592       O593   2.037       .  S
O593      Co1609   1.900   1_455  S
C594        C686   1.477       .  S
C595        C678   1.446       .  S
C596        C698   1.472       .  S
C597        C674   1.514       .  S
C598        C694   1.476       .  S
C598        C599   1.404       .  A
C598        C603   1.396       .  A
C599        C600   1.409       .  A
C599        H604   1.087       .  S
C600        C714   1.490       .  S
C600        C601   1.411       .  A
C601        C602   1.402       .  A
C601        H605   1.090       .  S
C602        C735   1.474       .  S
C602        C603   1.399       .  A
C603        H606   1.085       .  S
C607        C699   1.481       .  S
C607        C608   1.412       .  A
C607        C612   1.388       .  A
C608        C609   1.417       .  A
C608        H613   1.087       .  S
C609        C738   1.504       .  S
C609        C610   1.413       .  A
C610        C611   1.418       .  A
C610        H614   1.083       .  S
C611        C727   1.478       .  S
C611        C612   1.392       .  A
C612        H615   1.077       .  S
C616        C754   1.481       .  S
C616        C617   1.406       .  A
C616        C621   1.400       .  A
C617        C618   1.416       .  A
C617        H622   1.079       .  S
C618        C702   1.496       .  S
C618        C619   1.414       .  A
C619        C620   1.410       .  A
C619        H623   1.086       .  S
C620        C690   1.495       .  S
C620        C621   1.402       .  A
C621        H624   1.084       .  S
C625        C731   1.459       .  S
C625        C626   1.400       .  A
C625        C630   1.393       .  A
C626        C627   1.391       .  A
C626        H631   1.084       .  S
C627        C743   1.457       .  S
C627        C628   1.398       .  A
C628        C629   1.397       .  A
C628        H632   1.083       .  S
C629        C679   1.456       .  S
C629        C630   1.393       .  A
C630        H633   1.084       .  S
C634        C762   1.495       .  S
C634        C635   1.394       .  A
C634        C639   1.407       .  A
C635        C636   1.403       .  A
C635        H640   1.087       .  S
C636        C718   1.504       .  S
C636        C637   1.427       .  A
C637        C638   1.429       .  A
C637        H641   1.079       .  S
C638        C675   1.515       .  S
C638        C639   1.417       .  A
C639        H642   1.084       .  S
C643        C759   1.467       .  S
C643        C644   1.399       .  A
C643        C648   1.399       .  A
C644        C645   1.397       .  A
C644        H649   1.083       .  S
C645        C706   1.474       .  S
C645        C646   1.402       .  A
C646        C647   1.408       .  A
C646        H650   1.081       .  S
C647        C670   1.475       .  S
C647        C648   1.400       .  A
C648        H651   1.083       .  S
C652        C751   1.496       .  S
C652        C653   1.413       .  A
C652        C657   1.412       .  A
C653        C654   1.407       .  A
C653        H658   1.074       .  S
C654        C687   1.476       .  S
C654        C655   1.398       .  A
C655        C656   1.396       .  A
C655        H659   1.080       .  S
C656        C723   1.483       .  S
C656        C657   1.407       .  A
C657        H660   1.083       .  S
C661        C711   1.473       .  S
C661        C662   1.404       .  A
C661        C666   1.394       .  A
C662        C663   1.416       .  A
C662        H667   1.081       .  S
C663        C683   1.495       .  S
C663        C664   1.401       .  A
C664        C665   1.396       .  A
C664        H668   1.087       .  S
C665        C747   1.464       .  S
C665        C666   1.401       .  A
C666        H669   1.084       .  S
C670        C671   1.339       .  D
C670        H672   1.087       .  S
C671        H673   1.088       .  S
C674        C675   1.359       .  D
C674        H676   1.085       .  S
C675        H677   1.087       .  S
C678        C679   1.335       .  D
C678        H680   1.087       .  S
C679        H681   1.088       .  S
C682        C683   1.350       .  D
C682        H684   1.077       .  S
C683        H685   1.085       .  S
C686        C687   1.342       .  D
C686        H688   1.085       .  S
C687        H689   1.085       .  S
C690        C691   1.350       .  D
C690        H692   1.087       .  S
C691        H693   1.085       .  S
C694        C695   1.338       .  D
C694        H696   1.089       .  S
C695        H697   1.087       .  S
C698        C699   1.332       .  D
C698        H700   1.078       .  S
C699        H701   1.080       .  S
C702        C703   1.351       .  D
C702        H704   1.092       .  S
C703        H705   1.090       .  S
C706        C707   1.340       .  D
C706        H708   1.091       .  S
C707        H709   1.089       .  S
C710        C711   1.345       .  D
C710        H712   1.090       .  S
C711        H713   1.090       .  S
C714        C715   1.349       .  D
C714        H716   1.091       .  S
C715        H717   1.089       .  S
C718        C719   1.347       .  D
C718        H720   1.089       .  S
C719        H721   1.087       .  S
C722        C723   1.341       .  D
C722        H724   1.093       .  S
C723        H725   1.091       .  S
C726        C727   1.327       .  D
C726        H728   1.075       .  S
C727        H729   1.078       .  S
C730        C731   1.334       .  D
C730        H732   1.082       .  S
C731        H733   1.084       .  S
C734        C735   1.353       .  D
C734        H736   1.084       .  S
C735        H737   1.084       .  S
C738        C739   1.363       .  D
C738        H740   1.086       .  S
C739        H741   1.084       .  S
C742        C743   1.334       .  D
C742        H744   1.083       .  S
C743        H745   1.085       .  S
C746        C747   1.327       .  D
C746        H748   1.088       .  S
C747        H749   1.092       .  S
C750        C751   1.353       .  D
C750        H752   1.082       .  S
C751        H753   1.088       .  S
C754        C755   1.347       .  D
C754        H756   1.086       .  S
C755        H757   1.085       .  S
C758        C759   1.341       .  D
C758        H760   1.089       .  S
C759        H761   1.087       .  S
C762        C763   1.348       .  D
C762        H764   1.087       .  S
C763        H765   1.084       .  S
O766        C774   1.260       .  A
O766       Co786   1.990       .  S
O767        C775   1.262       .  A
O767       Co787   1.908       .  S
O768        C776   1.283       .  A
O768       Co788   2.042       .  S
O769        C777   1.290       .  A
O769       Co789   2.056       .  S
O770        C776   1.268       .  A
O770       Co787   1.967       .  S
O771        C777   1.272       .  A
O771       Co786   1.888       .  S
O772        C775   1.293       .  A
O773        C774   1.259       .  A
C774       C1018   1.469       .  S
C775        C994   1.477       .  S
C776        C997   1.482       .  S
C777       C1005   1.456       .  S
O778        C791   1.235       .  A
O778       Co786   1.958       .  S
O779        C792   1.260       .  A
O779       Co787   2.001       .  S
O780        C793   1.262       .  A
O781        C794   1.271       .  A
O782        C794   1.289       .  A
O782       Co787   2.080       .  S
O783        C793   1.267       .  A
O783       Co786   2.002       .  S
O784        C791   1.257       .  A
O784       Co789   2.027       .  S
O785        C792   1.258       .  A
O785       Co788   1.992       .  S
Co786       O790   1.904       .  S
Co789       O790   2.227       .  S
C791       C1010   1.477       .  S
C792       C1001   1.475       .  S
C793       C1013   1.466       .  S
C794        C989   1.473       .  S
O795        C803   1.265       .  A
O795       Co815   2.006       .  S
O796        C804   1.273       .  A
O796       Co816   2.039       .  S
O797        C805   1.295       .  A
O797       Co817   2.061       .  S
O798        C806   1.256       .  A
O799        C805   1.278       .  A
O799       Co816   1.910       .  S
O800        C806   1.239       .  A
O800       Co815   1.946       .  S
O801        C804   1.260       .  A
O801       Co818   1.970       .  S
O802        C803   1.264       .  A
C803        C981   1.471       .  S
C804        C958   1.486       .  S
C805        C970   1.466       .  S
C806        C977   1.465       .  S
O807        C820   1.267       .  A
O807       Co815   1.890       .  S
O808        C821   1.299       .  A
O808       Co816   2.090       .  S
O809        C822   1.268       .  A
O810        C823   1.269       .  A
O810       Co818   2.008       .  S
O811        C823   1.261       .  A
O811       Co816   1.955       .  S
O812        C822   1.256       .  A
O812       Co815   1.987       .  S
O813        C820   1.294       .  A
O814        C821   1.273       .  A
O814       Co817   1.904       .  S
Co816       O819   2.023       .  S
Co817       O819   2.059       .  S
Co818       O819   2.045       .  S
C820        C974   1.466       .  S
C821        C965   1.483       .  S
C822        C985   1.483       .  S
C823        C962   1.472       .  S
O824        C832   1.277       .  A
O824       Co844   1.876       .  S
O825        C833   1.268       .  A
O825       Co845   1.974       .  S
O826        C834   1.238       .  A
O826       Co846   1.968       .  S
O827        C835   1.264       .  A
O827      Co1867   2.003       .  S
O828        C834   1.264       .  A
O828       Co845   2.037       .  S
O829        C835   1.257       .  A
O829       Co844   1.986       .  S
O830        C833   1.270       .  A
O830       Co847   1.981       .  S
O831        C832   1.295       .  A
O831      Co1866   2.062       .  S
C832        C950   1.458       .  S
C833        C926   1.462       .  S
C834        C937   1.479       .  S
C835        C946   1.481       .  S
O836        C849   1.279       .  A
O836       Co844   2.014       .  S
O837        C850   1.274       .  A
O837       Co845   1.907       .  S
O838        C851   1.242       .  A
O838      Co1866   1.934       .  S
O839        C852   1.273       .  A
O839       Co847   2.023       .  S
O840        C852   1.267       .  A
O840       Co845   1.980       .  S
O841        C851   1.269       .  A
O841       Co844   2.016       .  S
O842        C849   1.271       .  A
O842      Co1867   1.979       .  S
O843        C850   1.293       .  A
O843       Co846   2.058       .  S
Co844      O1868   1.899       .  S
Co845       O848   1.924       .  S
Co846      O1851   2.036   1_455  S
Co846      O1858   1.932   1_455  S
Co846       O848   2.108       .  S
Co847      O1847   2.034   1_455  S
Co847      O1862   1.985   1_455  S
Co847       O848   2.036       .  S
O848      Co1864   1.905   1_455  S
C849        C941   1.473       .  S
C850        C933   1.467       .  S
C851        C953   1.471       .  S
C852        C929   1.484       .  S
C853        C949   1.457       .  S
C853        C854   1.388       .  A
C853        C858   1.403       .  A
C854        C855   1.393       .  A
C854        H859   1.092       .  S
C855        C969   1.474       .  S
C855        C856   1.406       .  A
C856        C857   1.415       .  A
C856        H860   1.078       .  S
C857        C990   1.492       .  S
C857        C858   1.403       .  A
C858        H861   1.084       .  S
C862        C954   1.482       .  S
C862        C863   1.416       .  A
C862        C867   1.398       .  A
C863        C864   1.411       .  A
C863        H868   1.087       .  S
C864        C993   1.491       .  S
C864        C865   1.405       .  A
C865        C866   1.404       .  A
C865        H869   1.081       .  S
C866        C982   1.479       .  S
C866        C867   1.397       .  A
C867        H870   1.086       .  S
C871       C1009   1.494       .  S
C871        C872   1.411       .  A
C871        C876   1.398       .  A
C872        C873   1.408       .  A
C872        H877   1.078       .  S
C873        C957   1.490       .  S
C873        C874   1.410       .  A
C874        C875   1.414       .  A
C874        H878   1.083       .  S
C875        C945   1.489       .  S
C875        C876   1.403       .  A
C876        H879   1.089       .  S
C880        C986   1.494       .  S
C880        C881   1.411       .  A
C880        C885   1.412       .  A
C881        C882   1.409       .  A
C881        H886   1.077       .  S
C882        C998   1.496       .  S
C882        C883   1.402       .  A
C883        C884   1.406       .  A
C883        H887   1.081       .  S
C884        C934   1.485       .  S
C884        C885   1.403       .  A
C885        H888   1.086       .  S
C889       C1017   1.485       .  S
C889        C890   1.394       .  A
C889        C894   1.415       .  A
C890        C891   1.393       .  A
C890        H895   1.082       .  S
C891        C973   1.466       .  S
C891        C892   1.401       .  A
C892        C893   1.411       .  A
C892        H896   1.075       .  S
C893        C930   1.501       .  S
C893        C894   1.414       .  A
C894        H897   1.075       .  S
C898       C1014   1.478       .  S
C898        C899   1.402       .  A
C898        C903   1.398       .  A
C899        C900   1.407       .  A
C899        H904   1.081       .  S
C900        C961   1.485       .  S
C900        C901   1.403       .  A
C901        C902   1.405       .  A
C901        H905   1.086       .  S
C902        C925   1.469       .  S
C902        C903   1.399       .  A
C903        H906   1.081       .  S
C907       C1006   1.467       .  S
C907        C908   1.395       .  A
C907        C912   1.403       .  A
C908        C909   1.396       .  A
C908        H913   1.089       .  S
C909        C942   1.472       .  S
C909        C910   1.400       .  A
C910        C911   1.411       .  A
C910        H914   1.083       .  S
C911        C978   1.484       .  S
C911        C912   1.403       .  A
C912        H915   1.082       .  S
C916        C966   1.498       .  S
C916        C917   1.411       .  A
C916        C921   1.410       .  A
C917        C918   1.417       .  A
C917        H922   1.078       .  S
C918        C938   1.503       .  S
C918        C919   1.407       .  A
C919        C920   1.404       .  A
C919        H923   1.083       .  S
C920       C1002   1.482       .  S
C920        C921   1.401       .  A
C921        H924   1.081       .  S
C925        C926   1.338       .  D
C925        H927   1.088       .  S
C926        H928   1.090       .  S
C929        C930   1.355       .  D
C929        H931   1.076       .  S
C930        H932   1.083       .  S
C933        C934   1.341       .  D
C933        H935   1.091       .  S
C934        H936   1.090       .  S
C937        C938   1.354       .  D
C937        H939   1.074       .  S
C938        H940   1.081       .  S
C941        C942   1.340       .  D
C941        H943   1.087       .  S
C942        H944   1.086       .  S
C945        C946   1.345       .  D
C945        H947   1.087       .  S
C946        H948   1.084       .  S
C949        C950   1.331       .  D
C949        H951   1.091       .  S
C950        H952   1.092       .  S
C953        C954   1.333       .  D
C953        H955   1.090       .  S
C954        H956   1.090       .  S
C957        C958   1.347       .  D
C957        H959   1.090       .  S
C958        H960   1.090       .  S
C961        C962   1.346       .  D
C961        H963   1.090       .  S
C962        H964   1.087       .  S
C965        C966   1.350       .  D
C965        H967   1.079       .  S
C966        H968   1.081       .  S
C969        C970   1.348       .  D
C969        H971   1.082       .  S
C970        H972   1.082       .  S
C973        C974   1.337       .  D
C973        H975   1.087       .  S
C974        H976   1.086       .  S
C977        C978   1.342       .  D
C977        H979   1.081       .  S
C978        H980   1.084       .  S
C981        C982   1.343       .  D
C981        H983   1.090       .  S
C982        H984   1.089       .  S
C985        C986   1.351       .  D
C985        H987   1.084       .  S
C986        H988   1.085       .  S
C989        C990   1.344       .  D
C989        H991   1.080       .  S
C990        H992   1.084       .  S
C993        C994   1.349       .  D
C993        H995   1.092       .  S
C994        H996   1.090       .  S
C997        C998   1.349       .  D
C997        H999   1.081       .  S
C998       H1000   1.086       .  S
C1001      C1002   1.344       .  D
C1001      H1003   1.082       .  S
C1002      H1004   1.081       .  S
C1005      C1006   1.333       .  D
C1005      H1007   1.090       .  S
C1006      H1008   1.092       .  S
C1009      C1010   1.343       .  D
C1009      H1011   1.093       .  S
C1010      H1012   1.089       .  S
C1013      C1014   1.343       .  D
C1013      H1015   1.083       .  S
C1014      H1016   1.083       .  S
C1017      C1018   1.339       .  D
C1017      H1019   1.084       .  S
C1018      H1020   1.080       .  S
O1021      C1029   1.265       .  A
O1021     Co1041   1.996       .  S
O1022      C1030   1.280       .  A
O1022     Co1042   1.854       .  S
O1023      C1031   1.273       .  A
O1023     Co1043   2.011   1_554  S
O1024      C1032   1.306       .  A
O1024     Co1044   2.095       .  S
O1025      C1031   1.273       .  A
O1025     Co1042   1.974       .  S
O1026      C1032   1.272       .  A
O1026     Co1041   1.873       .  S
O1027      C1030   1.325       .  A
O1027     Co1299   2.170   1_554  S
O1028      C1029   1.263       .  A
O1028     Co1298   2.010       .  S
C1029      C1273   1.485       .  S
C1030      C1249   1.493       .  S
C1031      C1252   1.480       .  S
C1032      C1260   1.478       .  S
O1033      C1046   1.241       .  A
O1033     Co1041   1.978       .  S
O1034      C1047   1.279       .  A
O1034     Co1042   2.018       .  S
O1035      C1048   1.268       .  A
O1035     Co1298   1.990       .  S
O1036      C1049   1.248   1_556  A
O1036     Co1299   1.977       .  S
O1037      C1049   1.258       .  A
O1037     Co1042   2.002       .  S
O1038      C1048   1.270       .  A
O1038     Co1041   1.988       .  S
O1039      C1046   1.255       .  A
O1039     Co1044   2.030       .  S
O1040      C1047   1.277       .  A
O1040     Co1043   2.002   1_554  S
Co1041     O1045   1.900       .  S
Co1042     O1300   1.880   1_554  S
Co1043     O1283   2.032       .  S
Co1043     O1290   1.983       .  S
Co1043     O1300   2.016       .  S
Co1044     O1282   2.111       .  S
Co1044     O1291   2.009       .  S
Co1044     O1045   2.262       .  S
O1045     Co1297   1.928       .  S
O1045     Co1298   2.097       .  S
C1046      C1265   1.492       .  S
C1047      C1256   1.483       .  S
C1048      C1268   1.472       .  S
C1049      C1244   1.464       .  S
O1050      C1058   1.261       .  A
O1050     Co1070   1.979       .  S
O1051      C1059   1.270       .  A
O1051     Co1071   1.982       .  S
O1052      C1060   1.290       .  A
O1052     Co1072   2.097   1_545  S
O1053      C1061   1.269       .  A
O1053     Co1583   2.025       .  S
O1054      C1060   1.266       .  A
O1054     Co1071   1.886       .  S
O1055      C1061   1.259       .  A
O1055     Co1070   1.957       .  S
O1056      C1059   1.285       .  A
O1056     Co1073   2.052       .  S
O1057      C1058   1.266       .  A
O1057     Co1582   2.019       .  S
C1058      C1236   1.489       .  S
C1059      C1213   1.498       .  S
C1060      C1225   1.456       .  S
C1061      C1232   1.480       .  S
O1062      C1075   1.278       .  A
O1062     Co1070   2.038       .  S
O1063      C1076   1.295       .  A
O1063     Co1071   2.108       .  S
O1064      C1077   1.265       .  A
O1064     Co1582   1.978       .  S
O1065      C1078   1.261       .  A
O1065     Co1073   1.985       .  S
O1066      C1078   1.260       .  A
O1066     Co1071   1.991       .  S
O1067      C1077   1.274       .  A
O1067     Co1070   2.011       .  S
O1068      C1075   1.263       .  A
O1068     Co1583   1.974       .  S
O1069      C1076   1.266       .  A
O1069     Co1072   1.902   1_545  S
Co1070     O1584   2.038       .  S
Co1071     O1074   1.997   1_545  S
Co1072     O1567   2.010       .  S
Co1072     O1574   1.979       .  S
Co1072     O1074   2.006       .  S
Co1073     O1563   2.022   1_545  S
Co1073     O1578   1.992   1_545  S
Co1073     O1074   2.045   1_545  S
O1074     Co1580   2.019       .  S
C1075      C1229   1.488       .  S
C1076      C1220   1.483       .  S
C1077      C1240   1.466       .  S
C1078      C1217   1.466       .  S
O1079      C1087   1.276       .  A
O1079     Co1099   1.848       .  S
O1080      C1088   1.268       .  A
O1080     Co1100   2.007       .  S
O1081      C1089   1.253       .  A
O1081     Co1101   1.975       .  S
O1082      C1090   1.272       .  A
O1083      C1089   1.255       .  A
O1083     Co1100   2.015       .  S
O1084      C1090   1.267       .  A
O1084     Co1099   1.986       .  S
O1085      C1088   1.263       .  A
O1085     Co1102   1.974       .  S
O1086      C1087   1.309       .  A
C1087      C1205   1.468       .  S
C1088      C1181   1.462       .  S
C1089      C1192   1.479       .  S
C1090      C1201   1.505       .  S
O1091      C1104   1.273       .  A
O1091     Co1099   2.024       .  S
O1092      C1105   1.274       .  A
O1092     Co1100   1.865       .  S
O1093      C1106   1.248       .  A
O1094      C1107   1.276       .  A
O1094     Co1102   2.041       .  S
O1095      C1107   1.265       .  A
O1095     Co1100   1.972       .  S
O1096      C1106   1.258       .  A
O1096     Co1099   2.032       .  S
O1097      C1104   1.259       .  A
O1098      C1105   1.306       .  A
O1098     Co1101   2.126       .  S
Co1100     O1103   1.957       .  S
Co1101     O1103   2.118       .  S
Co1102     O1103   2.118       .  S
C1104      C1196   1.469       .  S
C1105      C1188   1.485       .  S
C1106      C1208   1.479       .  S
C1107      C1184   1.502       .  S
C1108      C1204   1.479       .  S
C1108      C1109   1.399       .  A
C1108      C1113   1.401       .  A
C1109      C1110   1.403       .  A
C1109      H1114   1.077       .  S
C1110      C1224   1.476       .  S
C1110      C1111   1.400       .  A
C1111      C1112   1.403       .  A
C1111      H1115   1.085       .  S
C1112      C1245   1.469       .  S
C1112      C1113   1.401       .  A
C1113      H1116   1.091       .  S
C1117      C1209   1.489       .  S
C1117      C1118   1.409       .  A
C1117      C1122   1.406       .  A
C1118      C1119   1.407       .  A
C1118      H1123   1.083       .  S
C1119      C1248   1.498       .  S
C1119      C1120   1.413       .  A
C1120      C1121   1.414       .  A
C1120      H1124   1.080       .  S
C1121      C1237   1.500       .  S
C1121      C1122   1.408       .  A
C1122      H1125   1.084       .  S
C1126      C1264   1.512       .  S
C1126      C1127   1.409       .  A
C1126      C1131   1.407       .  A
C1127      C1128   1.413       .  A
C1127      H1132   1.096       .  S
C1128      C1212   1.510       .  S
C1128      C1129   1.424       .  A
C1129      C1130   1.418       .  A
C1129      H1133   1.073       .  S
C1130      C1200   1.512       .  S
C1130      C1131   1.413       .  A
C1131      H1134   1.087       .  S
C1135      C1241   1.478       .  S
C1135      C1136   1.399       .  A
C1135      C1140   1.397       .  A
C1136      C1137   1.403       .  A
C1136      H1141   1.087       .  S
C1137      C1253   1.491       .  S
C1137      C1138   1.418       .  A
C1138      C1139   1.414       .  A
C1138      H1142   1.077       .  S
C1139      C1189   1.489       .  S
C1139      C1140   1.401       .  A
C1140      H1143   1.087       .  S
C1144      C1272   1.501       .  S
C1144      C1145   1.398       .  A
C1144      C1149   1.415       .  A
C1145      C1146   1.400       .  A
C1145      H1150   1.090       .  S
C1146      C1228   1.487       .  S
C1146      C1147   1.415       .  A
C1147      C1148   1.419       .  A
C1147      H1151   1.080       .  S
C1148      C1185   1.512       .  S
C1148      C1149   1.419       .  A
C1149      H1152   1.080       .  S
C1153      C1269   1.462       .  S
C1153      C1154   1.396       .  A
C1153      C1158   1.393       .  A
C1154      C1155   1.406       .  A
C1154      H1159   1.086       .  S
C1155      C1216   1.472       .  S
C1155      C1156   1.403       .  A
C1156      C1157   1.402       .  A
C1156      H1160   1.084       .  S
C1157      C1180   1.472       .  S
C1157      C1158   1.401       .  A
C1158      H1161   1.083       .  S
C1162      C1261   1.471       .  S
C1162      C1163   1.399       .  A
C1162      C1167   1.404       .  A
C1163      C1164   1.393       .  A
C1163      H1168   1.084       .  S
C1164      C1197   1.483       .  S
C1164      C1165   1.406       .  A
C1165      C1166   1.408       .  A
C1165      H1169   1.089       .  S
C1166      C1233   1.491       .  S
C1166      C1167   1.413       .  A
C1167      H1170   1.087       .  S
C1171      C1221   1.492       .  S
C1171      C1172   1.412       .  A
C1171      C1176   1.412       .  A
C1172      C1173   1.411       .  A
C1172      H1177   1.082       .  S
C1173      C1193   1.492       .  S
C1173      C1174   1.405       .  A
C1174      C1175   1.404       .  A
C1174      H1178   1.083       .  S
C1175      C1257   1.489       .  S
C1175      C1176   1.403       .  A
C1176      H1179   1.086       .  S
C1180      C1181   1.344       .  D
C1180      H1182   1.088       .  S
C1181      H1183   1.089       .  S
C1184      C1185   1.360       .  D
C1184      H1186   1.082       .  S
C1185      H1187   1.085       .  S
C1188      C1189   1.345       .  D
C1188      H1190   1.086       .  S
C1189      H1191   1.090       .  S
C1192      C1193   1.345       .  D
C1192      H1194   1.087       .  S
C1193      H1195   1.089       .  S
C1196      C1197   1.338       .  D
C1196      H1198   1.083       .  S
C1197      H1199   1.084       .  S
C1200      C1201   1.360       .  D
C1200      H1202   1.088       .  S
C1201      H1203   1.085       .  S
C1204      C1205   1.344       .  D
C1204      H1206   1.083       .  S
C1205      H1207   1.080       .  S
C1208      C1209   1.351       .  D
C1208      H1210   1.084       .  S
C1209      H1211   1.087       .  S
C1212      C1213   1.353       .  D
C1212      H1214   1.095       .  S
C1213      H1215   1.090       .  S
C1216      C1217   1.340       .  D
C1216      H1218   1.088       .  S
C1217      H1219   1.090       .  S
C1220      C1221   1.349       .  D
C1220      H1222   1.088       .  S
C1221      H1223   1.087       .  S
C1224      C1225   1.339       .  D
C1224      H1226   1.090       .  S
C1225      H1227   1.086       .  S
C1228      C1229   1.343       .  D
C1228      H1230   1.090       .  S
C1229      H1231   1.090       .  S
C1232      C1233   1.349       .  D
C1232      H1234   1.094       .  S
C1233      H1235   1.096       .  S
C1236      C1237   1.352       .  D
C1236      H1238   1.084       .  S
C1237      H1239   1.088       .  S
C1240      C1241   1.346       .  D
C1240      H1242   1.086       .  S
C1241      H1243   1.089       .  S
C1244      C1245   1.340       .  D
C1244      H1246   1.092       .  S
C1245      H1247   1.095       .  S
C1248      C1249   1.359       .  D
C1248      H1250   1.091       .  S
C1249      H1251   1.089       .  S
C1252      C1253   1.344       .  D
C1252      H1254   1.086       .  S
C1253      H1255   1.089       .  S
C1256      C1257   1.348       .  D
C1256      H1258   1.088       .  S
C1257      H1259   1.087       .  S
C1260      C1261   1.346       .  D
C1260      H1262   1.079       .  S
C1261      H1263   1.081       .  S
C1264      C1265   1.355       .  D
C1264      H1266   1.096       .  S
C1265      H1267   1.096       .  S
C1268      C1269   1.341       .  D
C1268      H1270   1.091       .  S
C1269      H1271   1.090       .  S
C1272      C1273   1.346       .  D
C1272      H1274   1.096       .  S
C1273      H1275   1.093       .  S
O1276      C1284   1.262       .  A
O1276     Co1296   1.975       .  S
O1277      C1285   1.264       .  A
O1277     Co1297   1.872       .  S
O1278      C1286   1.270       .  A
O1278     Co1298   2.033       .  S
O1279      C1287   1.301       .  A
O1279     Co1299   2.102       .  S
O1280      C1286   1.262       .  A
O1280     Co1297   1.974       .  S
O1281      C1287   1.270       .  A
O1281     Co1296   1.899       .  S
O1282      C1285   1.302       .  A
O1283      C1284   1.272       .  A
C1284      C1528   1.487       .  S
C1285      C1504   1.477       .  S
C1286      C1507   1.472       .  S
C1287      C1515   1.487       .  S
O1288      C1301   1.289       .  A
O1288     Co1296   2.067       .  S
O1289      C1302   1.266       .  A
O1289     Co1297   2.011       .  S
O1290      C1303   1.268       .  A
O1291      C1304   1.261       .  A
O1292      C1304   1.249       .  A
O1292     Co1297   1.962       .  S
O1293      C1303   1.274       .  A
O1293     Co1296   1.988       .  S
O1294      C1301   1.282       .  A
O1294     Co1299   1.946       .  S
O1295      C1302   1.264       .  A
O1295     Co1298   1.981       .  S
Co1296     O1300   1.951       .  S
Co1299     O1300   2.045       .  S
C1301      C1520   1.493       .  S
C1302      C1511   1.472       .  S
C1303      C1523   1.465       .  S
C1304      C1499   1.477       .  S
O1305      C1313   1.261       .  A
O1305     Co1325   1.977       .  S
O1306      C1314   1.274       .  A
O1306     Co1326   1.988       .  S
O1307      C1315   1.300       .  A
O1307     Co1327   2.115       .  S
O1308      C1316   1.267       .  A
O1308     Co1838   2.021       .  S
O1309      C1315   1.263       .  A
O1309     Co1326   1.876       .  S
O1310      C1316   1.259       .  A
O1310     Co1325   1.962       .  S
O1311      C1314   1.283       .  A
O1311     Co1328   2.048       .  S
O1312      C1313   1.269       .  A
O1312     Co1837   2.016       .  S
C1313      C1491   1.480       .  S
C1314      C1468   1.503       .  S
C1315      C1480   1.469       .  S
C1316      C1487   1.484       .  S
O1317      C1330   1.278       .  A
O1317     Co1325   2.034       .  S
O1318      C1331   1.295       .  A
O1318     Co1326   2.120       .  S
O1319      C1332   1.272       .  A
O1319     Co1837   1.985       .  S
O1320      C1333   1.256       .  A
O1320     Co1328   1.983       .  S
O1321      C1333   1.256       .  A
O1321     Co1326   1.989       .  S
O1322      C1332   1.277       .  A
O1322     Co1325   2.030       .  S
O1323      C1330   1.265       .  A
O1323     Co1838   1.973       .  S
O1324      C1331   1.264       .  A
O1324     Co1327   1.896       .  S
Co1325     O1839   2.032       .  S
Co1326     O1329   2.013       .  S
Co1327     O1822   2.031   1_545  S
Co1327     O1829   1.973   1_545  S
Co1327     O1329   2.022       .  S
Co1328     O1818   2.033   1_545  S
Co1328     O1833   1.976   1_545  S
Co1328     O1329   2.037       .  S
O1329     Co1835   2.053   1_545  S
C1330      C1484   1.480       .  S
C1331      C1475   1.479       .  S
C1332      C1495   1.485       .  S
C1333      C1472   1.464       .  S
O1334      C1342   1.268       .  A
O1334     Co1354   1.860       .  S
O1335      C1343   1.270       .  A
O1335     Co1355   2.009       .  S
O1336      C1344   1.255       .  A
O1336     Co1356   1.985       .  S
O1337      C1345   1.274       .  A
O1338      C1344   1.251       .  A
O1338     Co1355   1.996       .  S
O1339      C1345   1.262       .  A
O1339     Co1354   1.974       .  S
O1340      C1343   1.264       .  A
O1340     Co1357   1.973       .  S
O1341      C1342   1.303       .  A
C1342      C1460   1.475       .  S
C1343      C1436   1.458       .  S
C1344      C1447   1.479       .  S
C1345      C1456   1.495       .  S
O1346      C1359   1.276       .  A
O1346     Co1354   2.032       .  S
O1347      C1360   1.262       .  A
O1347     Co1355   1.849       .  S
O1348      C1361   1.253   1_455  A
O1349      C1362   1.271       .  A
O1349     Co1357   2.012       .  S
O1350      C1362   1.261       .  A
O1350     Co1355   1.969       .  S
O1351      C1361   1.256       .  A
O1351     Co1354   2.009       .  S
O1352      C1359   1.264       .  A
O1353      C1360   1.310       .  A
O1353     Co1356   2.147       .  S
Co1355     O1358   1.924       .  S
Co1356     O1358   2.221       .  S
Co1357     O1358   2.068       .  S
C1359      C1451   1.472       .  S
C1360      C1443   1.477       .  S
C1361      C1463   1.484       .  S
C1362      C1439   1.481       .  S
C1363      C1459   1.483       .  S
C1363      C1364   1.400       .  A
C1363      C1368   1.406       .  A
C1364      C1365   1.403       .  A
C1364      H1369   1.088       .  S
C1365      C1479   1.494       .  S
C1365      C1366   1.407       .  A
C1366      C1367   1.413       .  A
C1366      H1370   1.080       .  S
C1367      C1500   1.489       .  S
C1367      C1368   1.406       .  A
C1368      H1371   1.081       .  S
C1372      C1464   1.489       .  S
C1372      C1373   1.407       .  A
C1372      C1377   1.407       .  A
C1373      C1374   1.404       .  A
C1373      H1378   1.085       .  S
C1374      C1503   1.493       .  S
C1374      C1375   1.405       .  A
C1375      C1376   1.411       .  A
C1375      H1379   1.084       .  S
C1376      C1492   1.495       .  S
C1376      C1377   1.413       .  A
C1377      H1380   1.081       .  S
C1381      C1519   1.507       .  S
C1381      C1382   1.420       .  A
C1381      C1386   1.400       .  A
C1382      C1383   1.422       .  A
C1382      H1387   1.082       .  S
C1383      C1467   1.515       .  S
C1383      C1384   1.419       .  A
C1384      C1385   1.415       .  A
C1384      H1388   1.079       .  S
C1385      C1455   1.503       .  S
C1385      C1386   1.403       .  A
C1386      H1389   1.084       .  S
C1390      C1496   1.491       .  S
C1390      C1391   1.405       .  A
C1390      C1395   1.402       .  A
C1391      C1392   1.408       .  A
C1391      H1396   1.086       .  S
C1392      C1508   1.481       .  S
C1392      C1393   1.408       .  A
C1393      C1394   1.408       .  A
C1393      H1397   1.083       .  S
C1394      C1444   1.495       .  S
C1394      C1395   1.414       .  A
C1395      H1398   1.082       .  S
C1399      C1527   1.500       .  S
C1399      C1400   1.407       .  A
C1399      C1404   1.409       .  A
C1400      C1401   1.405       .  A
C1400      H1405   1.090       .  S
C1401      C1483   1.491       .  S
C1401      C1402   1.407       .  A
C1402      C1403   1.410       .  A
C1402      H1406   1.081       .  S
C1403      C1440   1.494       .  S
C1403      C1404   1.411       .  A
C1404      H1407   1.084       .  S
C1408      C1524   1.463       .  S
C1408      C1409   1.395       .  A
C1408      C1413   1.388       .  A
C1409      C1410   1.406       .  A
C1409      H1414   1.084       .  S
C1410      C1471   1.472       .  S
C1410      C1411   1.407       .  A
C1411      C1412   1.405       .  A
C1411      H1415   1.083       .  S
C1412      C1435   1.473       .  S
C1412      C1413   1.397       .  A
C1413      H1416   1.087       .  S
C1417      C1516   1.482       .  S
C1417      C1418   1.404       .  A
C1417      C1422   1.410       .  A
C1418      C1419   1.401       .  A
C1418      H1423   1.083       .  S
C1419      C1452   1.487       .  S
C1419      C1420   1.402       .  A
C1420      C1421   1.404       .  A
C1420      H1424   1.084       .  S
C1421      C1488   1.491       .  S
C1421      C1422   1.416       .  A
C1422      H1425   1.079       .  S
C1426      C1476   1.494       .  S
C1426      C1427   1.415       .  A
C1426      C1431   1.409       .  A
C1427      C1428   1.416       .  A
C1427      H1432   1.080       .  S
C1428      C1448   1.489       .  S
C1428      C1429   1.402       .  A
C1429      C1430   1.398       .  A
C1429      H1433   1.081       .  S
C1430      C1512   1.476       .  S
C1430      C1431   1.396       .  A
C1431      H1434   1.085       .  S
C1435      C1436   1.346       .  D
C1435      H1437   1.084       .  S
C1436      H1438   1.086       .  S
C1439      C1440   1.352       .  D
C1439      H1441   1.087       .  S
C1440      H1442   1.090       .  S
C1443      C1444   1.344       .  D
C1443      H1445   1.088       .  S
C1444      H1446   1.087       .  S
C1447      C1448   1.341       .  D
C1447      H1449   1.087       .  S
C1448      H1450   1.088       .  S
C1451      C1452   1.345       .  D
C1451      H1453   1.081       .  S
C1452      H1454   1.083       .  S
C1455      C1456   1.352       .  D
C1455      H1457   1.081       .  S
C1456      H1458   1.076       .  S
C1459      C1460   1.344       .  D
C1459      H1461   1.093       .  S
C1460      H1462   1.089       .  S
C1463      C1464   1.352       .  D
C1463      H1465   1.088       .  S
C1464      H1466   1.091       .  S
C1467      C1468   1.358       .  D
C1467      H1469   1.086       .  S
C1468      H1470   1.085       .  S
C1471      C1472   1.343       .  D
C1471      H1473   1.088       .  S
C1472      H1474   1.090       .  S
C1475      C1476   1.350       .  D
C1475      H1477   1.085       .  S
C1476      H1478   1.085       .  S
C1479      C1480   1.348       .  D
C1479      H1481   1.081       .  S
C1480      H1482   1.081       .  S
C1483      C1484   1.347       .  D
C1483      H1485   1.090       .  S
C1484      H1486   1.088       .  S
C1487      C1488   1.346       .  D
C1487      H1489   1.083       .  S
C1488      H1490   1.086       .  S
C1491      C1492   1.352       .  D
C1491      H1493   1.083       .  S
C1492      H1494   1.086       .  S
C1495      C1496   1.353       .  D
C1495      H1497   1.088       .  S
C1496      H1498   1.090       .  S
C1499      C1500   1.345       .  D
C1499      H1501   1.085       .  S
C1500      H1502   1.086       .  S
C1503      C1504   1.348       .  D
C1503      H1505   1.082       .  S
C1504      H1506   1.081       .  S
C1507      C1508   1.347       .  D
C1507      H1509   1.086       .  S
C1508      H1510   1.087       .  S
C1511      C1512   1.342       .  D
C1511      H1513   1.099       .  S
C1512      H1514   1.097       .  S
C1515      C1516   1.349       .  D
C1515      H1517   1.087       .  S
C1516      H1518   1.087       .  S
C1519      C1520   1.344       .  D
C1519      H1521   1.091       .  S
C1520      H1522   1.089       .  S
C1523      C1524   1.337       .  D
C1523      H1525   1.085       .  S
C1524      H1526   1.088       .  S
C1527      C1528   1.354       .  D
C1527      H1529   1.094       .  S
C1528      H1530   1.091       .  S
O1531      C1539   1.266       .  A
O1531     Co1551   2.009       .  S
O1532      C1540   1.272       .  A
O1532     Co1552   1.894       .  S
O1533      C1541   1.261       .  A
O1533     Co1553   1.993   1_554  S
O1534      C1542   1.271       .  A
O1534     Co1554   1.980       .  S
O1535      C1541   1.268       .  A
O1535     Co1552   1.990       .  S
O1536      C1542   1.281       .  A
O1536     Co1551   2.014       .  S
O1537      C1540   1.302       .  A
O1537     Co1809   2.102   1_554  S
O1538      C1539   1.243       .  A
O1538     Co1808   1.937       .  S
C1539      C1783   1.473       .  S
C1540      C1759   1.486       .  S
C1541      C1762   1.480       .  S
C1542      C1770   1.475       .  S
O1543      C1556   1.256       .  A
O1543     Co1551   1.978       .  S
O1544      C1557   1.267       .  A
O1544     Co1552   1.996       .  S
O1545      C1558   1.300       .  A
O1545     Co1808   2.082       .  S
O1546      C1559   1.255       .  A
O1546     Co1809   2.016   1_554  S
O1547      C1559   1.240       .  A
O1547     Co1552   1.953       .  S
O1548      C1558   1.276       .  A
O1548     Co1551   1.881       .  S
O1549      C1556   1.268       .  A
O1549     Co1554   2.019       .  S
O1550      C1557   1.266       .  A
O1550     Co1553   1.974   1_554  S
Co1551     O1555   1.892       .  S
Co1552     O1810   1.927   1_554  S
Co1553     O1793   2.021       .  S
Co1553     O1800   1.959       .  S
Co1553     O1810   2.095       .  S
Co1554     O1792   2.046       .  S
Co1554     O1801   1.960       .  S
Co1554     O1555   2.039       .  S
O1555     Co1807   1.923       .  S
O1555     Co1808   2.107       .  S
C1556      C1775   1.480       .  S
C1557      C1766   1.463       .  S
C1558      C1778   1.467       .  S
C1559      C1754   1.475       .  S
O1560      C1568   1.263       .  A
O1560     Co1580   1.981       .  S
O1561      C1569   1.269       .  A
O1561     Co1581   1.976       .  S
O1562      C1570   1.295       .  A
O1562     Co1582   2.110       .  S
O1563      C1571   1.271       .  A
O1564      C1570   1.259       .  A
O1564     Co1581   1.885       .  S
O1565      C1571   1.262       .  A
O1565     Co1580   1.960       .  S
O1566      C1569   1.288       .  A
O1566     Co1583   2.063       .  S
O1567      C1568   1.263       .  A
C1568      C1746   1.483       .  S
C1569      C1723   1.497       .  S
C1570      C1735   1.468       .  S
C1571      C1742   1.475       .  S
O1572      C1585   1.272       .  A
O1572     Co1580   2.016       .  S
O1573      C1586   1.299       .  A
O1573     Co1581   2.117       .  S
O1574      C1587   1.271       .  A
O1575      C1588   1.253       .  A
O1575     Co1583   1.977       .  S
O1576      C1588   1.255       .  A
O1576     Co1581   1.991       .  S
O1577      C1587   1.279       .  A
O1577     Co1580   2.013       .  S
O1578      C1585   1.268       .  A
O1579      C1586   1.265       .  A
O1579     Co1582   1.887       .  S
Co1581     O1584   2.002       .  S
Co1582     O1584   2.017       .  S
Co1583     O1584   2.050       .  S
C1585      C1739   1.478       .  S
C1586      C1730   1.474       .  S
C1587      C1750   1.473       .  S
C1588      C1727   1.466       .  S
O1589      C1597   1.274       .  A
O1589     Co1609   1.884       .  S
O1590      C1598   1.260       .  A
O1590     Co1610   1.965       .  S
O1591      C1599   1.239       .  A
O1591     Co1611   1.951       .  S
O1592      C1600   1.271       .  A
O1593      C1599   1.266       .  A
O1593     Co1610   2.035       .  S
O1594      C1600   1.257       .  A
O1594     Co1609   1.979       .  S
O1595      C1598   1.265       .  A
O1595     Co1612   1.993       .  S
O1596      C1597   1.297       .  A
C1597      C1715   1.455       .  S
C1598      C1691   1.459       .  S
C1599      C1702   1.472       .  S
C1600      C1711   1.488       .  S
O1601      C1614   1.278       .  A
O1601     Co1609   2.013       .  S
O1602      C1615   1.271       .  A
O1602     Co1610   1.889       .  S
O1603      C1616   1.242       .  A
O1604      C1617   1.277       .  A
O1604     Co1612   2.027       .  S
O1605      C1617   1.275       .  A
O1605     Co1610   1.993       .  S
O1606      C1616   1.265       .  A
O1606     Co1609   2.009       .  S
O1607      C1614   1.268       .  A
O1608      C1615   1.301       .  A
O1608     Co1611   2.096       .  S
Co1610     O1613   1.922       .  S
Co1611     O1613   2.122       .  S
Co1612     O1613   2.044       .  S
C1614      C1706   1.475       .  S
C1615      C1698   1.484       .  S
C1616      C1718   1.466       .  S
C1617      C1694   1.496       .  S
C1618      C1714   1.470       .  S
C1618      C1619   1.397       .  A
C1618      C1623   1.401       .  A
C1619      C1620   1.399       .  A
C1619      H1624   1.091       .  S
C1620      C1734   1.485       .  S
C1620      C1621   1.405       .  A
C1621      C1622   1.415       .  A
C1621      H1625   1.080       .  S
C1622      C1755   1.491       .  S
C1622      C1623   1.403       .  A
C1623      H1626   1.084       .  S
C1627      C1719   1.475       .  S
C1627      C1628   1.406       .  A
C1627      C1632   1.395       .  A
C1628      C1629   1.404       .  A
C1628      H1633   1.087       .  S
C1629      C1758   1.484       .  S
C1629      C1630   1.411       .  A
C1630      C1631   1.416       .  A
C1630      H1634   1.078       .  S
C1631      C1747   1.492       .  S
C1631      C1632   1.400       .  A
C1632      H1635   1.086       .  S
C1636      C1774   1.493       .  S
C1636      C1637   1.410       .  A
C1636      C1641   1.395       .  A
C1637      C1638   1.416       .  A
C1637      H1642   1.086       .  S
C1638      C1722   1.512       .  S
C1638      C1639   1.424       .  A
C1639      C1640   1.417       .  A
C1639      H1643   1.084       .  S
C1640      C1710   1.495       .  S
C1640      C1641   1.398       .  A
C1641      H1644   1.079       .  S
C1645      C1751   1.472       .  S
C1645      C1646   1.398       .  A
C1645      C1650   1.400       .  A
C1646      C1647   1.397       .  A
C1646      H1651   1.087       .  S
C1647      C1763   1.490       .  S
C1647      C1648   1.418       .  A
C1648      C1649   1.415       .  A
C1648      H1652   1.077       .  S
C1649      C1699   1.483       .  S
C1649      C1650   1.403       .  A
C1650      H1653   1.084       .  S
C1654      C1782   1.483       .  S
C1654      C1655   1.394       .  A
C1654      C1659   1.412       .  A
C1655      C1656   1.398       .  A
C1655      H1660   1.084       .  S
C1656      C1738   1.489       .  S
C1656      C1657   1.408       .  A
C1657      C1658   1.416       .  A
C1657      H1661   1.077       .  S
C1658      C1695   1.505       .  S
C1658      C1659   1.417       .  A
C1659      H1662   1.087       .  S
C1663      C1779   1.470       .  S
C1663      C1664   1.394       .  A
C1663      C1668   1.400       .  A
C1664      C1665   1.404       .  A
C1664      H1669   1.082       .  S
C1665      C1726   1.474       .  S
C1665      C1666   1.402       .  A
C1666      C1667   1.402       .  A
C1666      H1670   1.086       .  S
C1667      C1690   1.474       .  S
C1667      C1668   1.406       .  A
C1668      H1671   1.088       .  S
C1672      C1771   1.470       .  S
C1672      C1673   1.394       .  A
C1672      C1677   1.402       .  A
C1673      C1674   1.393       .  A
C1673      H1678   1.087       .  S
C1674      C1707   1.474       .  S
C1674      C1675   1.404       .  A
C1675      C1676   1.408       .  A
C1675      H1679   1.091       .  S
C1676      C1743   1.488       .  S
C1676      C1677   1.414       .  A
C1677      H1680   1.082       .  S
C1681      C1731   1.489       .  S
C1681      C1682   1.406       .  A
C1681      C1686   1.403       .  A
C1682      C1683   1.416       .  A
C1682      H1687   1.081       .  S
C1683      C1703   1.491       .  S
C1683      C1684   1.404       .  A
C1684      C1685   1.397       .  A
C1684      H1688   1.089       .  S
C1685      C1767   1.469       .  S
C1685      C1686   1.397       .  A
C1686      H1689   1.082       .  S
C1690      C1691   1.339       .  D
C1690      H1692   1.084       .  S
C1691      H1693   1.086       .  S
C1694      C1695   1.360       .  D
C1694      H1696   1.080       .  S
C1695      H1697   1.085       .  S
C1698      C1699   1.345       .  D
C1698      H1700   1.092       .  S
C1699      H1701   1.092       .  S
C1702      C1703   1.350       .  D
C1702      H1704   1.083       .  S
C1703      H1705   1.088       .  S
C1706      C1707   1.340       .  D
C1706      H1708   1.089       .  S
C1707      H1709   1.088       .  S
C1710      C1711   1.343       .  D
C1710      H1712   1.083       .  S
C1711      H1713   1.082       .  S
C1714      C1715   1.342       .  D
C1714      H1716   1.084       .  S
C1715      H1717   1.083       .  S
C1718      C1719   1.333       .  D
C1718      H1720   1.084       .  S
C1719      H1721   1.086       .  S
C1722      C1723   1.353       .  D
C1722      H1724   1.093       .  S
C1723      H1725   1.090       .  S
C1726      C1727   1.343       .  D
C1726      H1728   1.088       .  S
C1727      H1729   1.089       .  S
C1730      C1731   1.346       .  D
C1730      H1732   1.091       .  S
C1731      H1733   1.090       .  S
C1734      C1735   1.346       .  D
C1734      H1736   1.081       .  S
C1735      H1737   1.082       .  S
C1738      C1739   1.348       .  D
C1738      H1740   1.081       .  S
C1739      H1741   1.082       .  S
C1742      C1743   1.346       .  D
C1742      H1744   1.096       .  S
C1743      H1745   1.098       .  S
C1746      C1747   1.344       .  D
C1746      H1748   1.084       .  S
C1747      H1749   1.088       .  S
C1750      C1751   1.345       .  D
C1750      H1752   1.089       .  S
C1751      H1753   1.092       .  S
C1754      C1755   1.344       .  D
C1754      H1756   1.085       .  S
C1755      H1757   1.087       .  S
C1758      C1759   1.346       .  D
C1758      H1760   1.094       .  S
C1759      H1761   1.095       .  S
C1762      C1763   1.339       .  D
C1762      H1764   1.092       .  S
C1763      H1765   1.093       .  S
C1766      C1767   1.340       .  D
C1766      H1768   1.096       .  S
C1767      H1769   1.095       .  S
C1770      C1771   1.341       .  D
C1770      H1772   1.090       .  S
C1771      H1773   1.089       .  S
C1774      C1775   1.343       .  D
C1774      H1776   1.080       .  S
C1775      H1777   1.077       .  S
C1778      C1779   1.338       .  D
C1778      H1780   1.084       .  S
C1779      H1781   1.083       .  S
C1782      C1783   1.335       .  D
C1782      H1784   1.086       .  S
C1783      H1785   1.083       .  S
O1786      C1794   1.258       .  A
O1786     Co1806   1.978       .  S
O1787      C1795   1.270       .  A
O1787     Co1807   2.001       .  S
O1788      C1796   1.300       .  A
O1788     Co1808   2.076       .  S
O1789      C1797   1.300       .  A
O1789     Co1809   2.091       .  S
O1790      C1796   1.268       .  A
O1790     Co1807   1.875       .  S
O1791      C1797   1.271       .  A
O1791     Co1806   1.895       .  S
O1792      C1795   1.280       .  A
O1793      C1794   1.268       .  A
C1794      C2038   1.481       .  S
C1795      C2014   1.506       .  S
C1796      C2017   1.450       .  S
C1797      C2025   1.482       .  S
O1798      C1811   1.238       .  A
O1798     Co1806   1.955       .  S
O1799      C1812   1.272       .  A
O1799     Co1807   2.045       .  S
O1800      C1813   1.257       .  A
O1801      C1814   1.253       .  A
O1802      C1814   1.263       .  A
O1802     Co1807   1.967       .  S
O1803      C1813   1.271       .  A
O1803     Co1806   2.009       .  S
O1804      C1811   1.259       .  A
O1804     Co1809   2.031       .  S
O1805      C1812   1.243       .  A
O1805     Co1808   1.962       .  S
Co1806     O1810   1.919       .  S
Co1809     O1810   2.265       .  S
C1811      C2030   1.485       .  S
C1812      C2021   1.491       .  S
C1813      C2033   1.458       .  S
C1814      C2009   1.446       .  S
O1815      C1823   1.264       .  A
O1815     Co1835   1.979       .  S
O1816      C1824   1.271       .  A
O1816     Co1836   1.988       .  S
O1817      C1825   1.285       .  A
O1817     Co1837   2.087       .  S
O1818      C1826   1.275       .  A
O1819      C1825   1.264       .  A
O1819     Co1836   1.883       .  S
O1820      C1826   1.264       .  A
O1820     Co1835   1.961       .  S
O1821      C1824   1.289       .  A
O1821     Co1838   2.075       .  S
O1822      C1823   1.267       .  A
C1823      C2001   1.501       .  S
C1824      C1978   1.513       .  S
C1825      C1990   1.446       .  S
C1826      C1997   1.485       .  S
O1827      C1840   1.271       .  A
O1827     Co1835   2.033       .  S
O1828      C1841   1.300       .  A
O1828     Co1836   2.117       .  S
O1829      C1842   1.263       .  A
O1830      C1843   1.254       .  A
O1830     Co1838   1.973       .  S
O1831      C1843   1.254       .  A
O1831     Co1836   1.986       .  S
O1832      C1842   1.274       .  A
O1832     Co1835   2.007       .  S
O1833      C1840   1.261       .  A
O1834      C1841   1.268       .  A
O1834     Co1837   1.913       .  S
Co1836     O1839   2.017       .  S
Co1837     O1839   2.014       .  S
Co1838     O1839   2.049       .  S
C1840      C1994   1.484       .  S
C1841      C1985   1.499       .  S
C1842      C2005   1.459       .  S
C1843      C1982   1.461       .  S
O1844      C1852   1.283       .  A
O1844     Co1864   1.874       .  S
O1845      C1853   1.262       .  A
O1845     Co1865   1.969       .  S
O1846      C1854   1.239       .  A
O1846     Co1866   1.963       .  S
O1847      C1855   1.270       .  A
O1848      C1854   1.268       .  A
O1848     Co1865   2.045       .  S
O1849      C1855   1.257       .  A
O1849     Co1864   1.995       .  S
O1850      C1853   1.261       .  A
O1850     Co1867   1.971       .  S
O1851      C1852   1.290       .  A
C1852      C1970   1.440       .  S
C1853      C1946   1.448       .  S
C1854      C1957   1.487       .  S
C1855      C1966   1.506       .  S
O1856      C1869   1.283       .  A
O1856     Co1864   2.025       .  S
O1857      C1870   1.271       .  A
O1857     Co1865   1.877       .  S
O1858      C1871   1.240       .  A
O1859      C1872   1.276       .  A
O1859     Co1867   2.029       .  S
O1860      C1872   1.270       .  A
O1860     Co1865   1.989       .  S
O1861      C1871   1.268       .  A
O1861     Co1864   2.026       .  S
O1862      C1869   1.272       .  A
O1863      C1870   1.295       .  A
O1863     Co1866   2.060       .  S
Co1865     O1868   1.920       .  S
Co1866     O1868   2.111       .  S
Co1867     O1868   2.036       .  S
C1869      C1961   1.482       .  S
C1870      C1953   1.452       .  S
C1871      C1973   1.474       .  S
C1872      C1949   1.495       .  S
C1873      C1969   1.451       .  S
C1873      C1874   1.385       .  A
C1873      C1878   1.398       .  A
C1874      C1875   1.400       .  A
C1874      H1879   1.086       .  S
C1875      C1989   1.461       .  S
C1875      C1876   1.396       .  A
C1876      C1877   1.400       .  A
C1876      H1880   1.081       .  S
C1877      C2010   1.455       .  S
C1877      C1878   1.388       .  A
C1878      H1881   1.088       .  S
C1882      C1974   1.488       .  S
C1882      C1883   1.409       .  A
C1882      C1887   1.392       .  A
C1883      C1884   1.415       .  A
C1883      H1888   1.081       .  S
C1884      C2013   1.514       .  S
C1884      C1885   1.428       .  A
C1885      C1886   1.424       .  A
C1885      H1889   1.077       .  S
C1886      C2002   1.505       .  S
C1886      C1887   1.402       .  A
C1887      H1890   1.078       .  S
C1891      C2029   1.501       .  S
C1891      C1892   1.410       .  A
C1891      C1896   1.395       .  A
C1892      C1893   1.416       .  A
C1892      H1897   1.080       .  S
C1893      C1977   1.523       .  S
C1893      C1894   1.433       .  A
C1894      C1895   1.430       .  A
C1894      H1898   1.078       .  S
C1895      C1965   1.512       .  S
C1895      C1896   1.404       .  A
C1896      H1899   1.088       .  S
C1900      C2006   1.469       .  S
C1900      C1901   1.402       .  A
C1900      C1905   1.407       .  A
C1901      C1902   1.396       .  A
C1901      H1906   1.089       .  S
C1902      C2018   1.467       .  S
C1902      C1903   1.396       .  A
C1903      C1904   1.397       .  A
C1903      H1907   1.086       .  S
C1904      C1954   1.470       .  S
C1904      C1905   1.397       .  A
C1905      H1908   1.075       .  S
C1909      C2037   1.497       .  S
C1909      C1910   1.403       .  A
C1909      C1914   1.410       .  A
C1910      C1911   1.403       .  A
C1910      H1915   1.080       .  S
C1911      C1993   1.490       .  S
C1911      C1912   1.412       .  A
C1912      C1913   1.416       .  A
C1912      H1916   1.079       .  S
C1913      C1950   1.506       .  S
C1913      C1914   1.413       .  A
C1914      H1917   1.084       .  S
C1918      C2034   1.469       .  S
C1918      C1919   1.395       .  A
C1918      C1923   1.396       .  A
C1919      C1920   1.407       .  A
C1919      H1924   1.087       .  S
C1920      C1981   1.466       .  S
C1920      C1921   1.399       .  A
C1921      C1922   1.397       .  A
C1921      H1925   1.085       .  S
C1922      C1945   1.461       .  S
C1922      C1923   1.398       .  A
C1923      H1926   1.084       .  S
C1927      C2026   1.477       .  S
C1927      C1928   1.398       .  A
C1927      C1932   1.408       .  A
C1928      C1929   1.395       .  A
C1928      H1933   1.088       .  S
C1929      C1962   1.482       .  S
C1929      C1930   1.405       .  A
C1930      C1931   1.411       .  A
C1930      H1934   1.085       .  S
C1931      C1998   1.495       .  S
C1931      C1932   1.417       .  A
C1932      H1935   1.087       .  S
C1936      C1986   1.506       .  S
C1936      C1937   1.412       .  A
C1936      C1941   1.416       .  A
C1937      C1938   1.415       .  A
C1937      H1942   1.089       .  S
C1938      C1958   1.506       .  S
C1938      C1939   1.407       .  A
C1939      C1940   1.408       .  A
C1939      H1943   1.087       .  S
C1940      C2022   1.501       .  S
C1940      C1941   1.414       .  A
C1941      H1944   1.079       .  S
C1945      C1946   1.339       .  D
C1945      H1947   1.084       .  S
C1946      H1948   1.087       .  S
C1949      C1950   1.356       .  D
C1949      H1951   1.079       .  S
C1950      H1952   1.084       .  S
C1953      C1954   1.338       .  D
C1953      H1955   1.077       .  S
C1954      H1956   1.077       .  S
C1957      C1958   1.356       .  D
C1957      H1959   1.084       .  S
C1958      H1960   1.087       .  S
C1961      C1962   1.342       .  D
C1961      H1963   1.095       .  S
C1962      H1964   1.094       .  S
C1965      C1966   1.349       .  D
C1965      H1967   1.091       .  S
C1966      H1968   1.089       .  S
C1969      C1970   1.323       .  D
C1969      H1971   1.086       .  S
C1970      H1972   1.087       .  S
C1973      C1974   1.334       .  D
C1973      H1975   1.082       .  S
C1974      H1976   1.084       .  S
C1977      C1978   1.357       .  D
C1977      H1979   1.087       .  S
C1978      H1980   1.084       .  S
C1981      C1982   1.339       .  D
C1981      H1983   1.088       .  S
C1982      H1984   1.090       .  S
C1985      C1986   1.353       .  D
C1985      H1987   1.097       .  S
C1986      H1988   1.098       .  S
C1989      C1990   1.333       .  D
C1989      H1991   1.090       .  S
C1990      H1992   1.088       .  S
C1993      C1994   1.345       .  D
C1993      H1995   1.083       .  S
C1994      H1996   1.081       .  S
C1997      C1998   1.350       .  D
C1997      H1999   1.087       .  S
C1998      H2000   1.089       .  S
C2001      C2002   1.350       .  D
C2001      H2003   1.086       .  S
C2002      H2004   1.088       .  S
C2005      C2006   1.339       .  D
C2005      H2007   1.091       .  S
C2006      H2008   1.095       .  S
C2009      C2010   1.327       .  D
C2009      H2011   1.096       .  S
C2010      H2012   1.096       .  S
C2013      C2014   1.356       .  D
C2013      H2015   1.090       .  S
C2014      H2016   1.088       .  S
C2017      C2018   1.340       .  D
C2017      H2019   1.094       .  S
C2018      H2020   1.092       .  S
C2021      C2022   1.357       .  D
C2021      H2023   1.082       .  S
C2022      H2024   1.085       .  S
C2025      C2026   1.344       .  D
C2025      H2027   1.085       .  S
C2026      H2028   1.085       .  S
C2029      C2030   1.344       .  D
C2029      H2031   1.091       .  S
C2030      H2032   1.088       .  S
C2033      C2034   1.335       .  D
C2033      H2035   1.091       .  S
C2034      H2036   1.091       .  S
C2037      C2038   1.350       .  D
C2037      H2039   1.080       .  S
C2038      H2040   1.078       .  S
