geometry optimzed in LAMMPS
_audit_creation_date              2020-12-01 
_audit_creation_method            'lammps2cif' 
_symmetry_space_group_name_H-M    'P1' 
_symmetry_Int_Tables_number       1 
_symmetry_cell_setting            triclinic 
loop_ 
_symmetry_equiv_pos_as_xyz 
  x,y,z 
_cell_length_a                    52.42531759 
_cell_length_b                    53.04823587113599 
_cell_length_c                    52.72664822566643 
_cell_angle_alpha                 89.99573751958525 
_cell_angle_beta                  89.976613196357 
_cell_angle_gamma                 89.90693364625007 
loop_ 
_atom_site_label 
_atom_site_type_symbol 
_atom_site_fract_x 
_atom_site_fract_y 
_atom_site_fract_z 
_atom_site_charge 
In1        In  0.36629192  0.75526444  0.50633629     1.36900
C2          C  0.39718173  0.74947607  0.46637270     0.78100
O3          O  0.33597431  0.78553614  0.50780482    -0.60400
O4          O  0.37446425  0.79677212  0.50273733    -0.51300
C5          C  0.32871808  0.72065423  0.50664031     0.70800
O6          O  0.33813924  0.72963366  0.48662434    -0.46100
C7          C  0.39462276  0.75032098  0.54791500     0.75500
O8          O  0.37550457  0.75963656  0.46462399    -0.58000
O9          O  0.37949395  0.76854494  0.54457189    -0.48100
O10         O  0.40248697  0.74152978  0.48824622    -0.54400
C11         C  0.35151044  0.80338637  0.50464876     0.85600
O12         O  0.33823293  0.72965431  0.52659427    -0.56300
O13         O  0.39428485  0.73401264  0.53049343    -0.59600
C14         C  0.32258184  0.87520709  0.50185571     0.87000
C15         C  0.33987881  0.89885596  0.50206277    -0.53200
C16         C  0.32626712  0.92094429  0.50230990     0.09900
C17         C  0.29731129  0.91725489  0.50233870     0.20900
C18         C  0.30502246  0.87814450  0.52503419    -0.54000
C19         C  0.29182468  0.90020252  0.52505731     0.10000
C20         C  0.30495877  0.87860455  0.47870952    -0.53500
C21         C  0.29181360  0.90078109  0.47921645     0.10600
H22         H  0.36057867  0.89816506  0.50211646     0.15100
H23         H  0.28626592  0.93518310  0.50258849     0.00900
H24         H  0.30278850  0.86389874  0.53967162     0.15400
H25         H  0.30276103  0.86470426  0.46374388     0.15200
In26       In  0.51378889  0.75836491  0.65314914     1.36900
C27         C  0.47224487  0.75185050  0.62492904     0.78100
O28         O  0.51770904  0.78883939  0.68270994    -0.60400
O29         O  0.51032105  0.79978103  0.64463278    -0.51300
C30         C  0.51373867  0.72472867  0.69117984     0.70800
O31         O  0.49386563  0.73569687  0.68354455    -0.46100
C32         C  0.55399889  0.75341469  0.62243070     0.75500
O33         O  0.47391498  0.76889662  0.64150851    -0.58000
O34         O  0.53395238  0.74060232  0.62009295    -0.48100
O35         O  0.49136065  0.73746618  0.62371005    -0.54400
C36         C  0.51400024  0.80658496  0.66719723     0.85600
O37         O  0.53368564  0.73133345  0.67970033    -0.56300
O38         O  0.55381372  0.76832665  0.64103998    -0.59600
C39         C  0.51423892  0.87799612  0.69655442     0.87000
C40         C  0.51367467  0.90235373  0.68034556    -0.53200
C41         C  0.51430712  0.92385368  0.69477306     0.09900
C42         C  0.51539639  0.91892612  0.72337228     0.20900
C43         C  0.53815714  0.88029430  0.71327720    -0.54000
C44         C  0.53848037  0.90176425  0.72733798     0.10000
C45         C  0.49165051  0.88050029  0.71505211    -0.53500
C46         C  0.49252403  0.90204568  0.72901386     0.10600
H47         H  0.51294871  0.90253515  0.65977036     0.15100
H48         H  0.51590352  0.93633725  0.73512341     0.00900
H49         H  0.55283573  0.86587664  0.71464642     0.15400
H50         H  0.47685259  0.86636150  0.71733570     0.15200
In51       In  0.66320939  0.75868961  0.50544189     1.36900
C52         C  0.63217902  0.75330876  0.54547884     0.78100
O53         O  0.65433123  0.80036237  0.50219565    -0.60400
O54         O  0.69257265  0.78947664  0.50960388    -0.51300
C55         C  0.70265788  0.72605735  0.50508684     0.70800
O56         O  0.69397107  0.73618263  0.48529720    -0.46100
C57         C  0.63473959  0.75093064  0.46418292     0.75500
O58         O  0.65049508  0.76864542  0.54519267    -0.58000
O59         O  0.65097455  0.76841299  0.46561847    -0.48100
O60         O  0.63038400  0.74014170  0.52571378    -0.54400
C61         C  0.67696945  0.80725763  0.50613680     0.85600
O62         O  0.69138614  0.73284284  0.52504744    -0.56300
O63         O  0.63390237  0.73688681  0.48344302    -0.59600
C64         C  0.70780081  0.87835625  0.50685202     0.87000
C65         C  0.69185276  0.90295443  0.50812191    -0.53200
C66         C  0.70664861  0.92425708  0.50812615     0.09900
C67         C  0.73532584  0.91897268  0.50693642     0.20900
C68         C  0.72467993  0.88124739  0.48307985    -0.54000
C69         C  0.73903104  0.90262978  0.48337422     0.10000
C70         C  0.72643702  0.87994070  0.52937877    -0.53500
C71         C  0.74079480  0.90129983  0.52916724     0.10600
H72         H  0.67116021  0.90343285  0.50879000     0.15100
H73         H  0.74729802  0.93628011  0.50696272     0.00900
H74         H  0.72547239  0.86756749  0.46776801     0.15400
H75         H  0.72847179  0.86535870  0.54370916     0.15200
In76       In  0.51502765  0.75541159  0.35853480     1.36900
C77         C  0.55639126  0.74943058  0.38778637     0.78100
O78         O  0.51885819  0.78582188  0.32884226    -0.60400
O79         O  0.51382693  0.79704130  0.36718636    -0.51300
C80         C  0.51356068  0.72167662  0.32035635     0.70800
O81         O  0.53369890  0.72772235  0.33179941    -0.46100
C82         C  0.47415333  0.74972602  0.38822292     0.75500
O83         O  0.55567523  0.76452151  0.36934066    -0.58000
O84         O  0.47531828  0.76646911  0.37127726    -0.48100
O85         O  0.53621970  0.73691952  0.39078202    -0.54400
C86         C  0.51691066  0.80372120  0.34447972     0.85600
O87         O  0.49406764  0.73326722  0.32808472    -0.56300
O88         O  0.49328344  0.73534783  0.38900469    -0.59600
C89         C  0.51930827  0.87575738  0.31606080     0.87000
C90         C  0.52112605  0.89937371  0.33326113    -0.53200
C91         C  0.52124925  0.92145123  0.31973053     0.09900
C92         C  0.51955322  0.91782871  0.29101191     0.20900
C93         C  0.49526402  0.87985540  0.29981511    -0.54000
C94         C  0.49565326  0.90196704  0.28675691     0.10000
C95         C  0.54177833  0.87811550  0.29735386    -0.53500
C96         C  0.54168202  0.90029384  0.28434055     0.10600
H97         H  0.52231867  0.89866629  0.35380398     0.15100
H98         H  0.51963512  0.93575770  0.28005975     0.00900
H99         H  0.47983087  0.86630248  0.29825425     0.15400
H100        H  0.55607432  0.86355300  0.29442866     0.15200
In101      In  0.80871056  0.46368725  0.65404880     1.36900
C102        C  0.80384310  0.50401221  0.62406619     0.78100
O103        O  0.85113548  0.46248921  0.64707093    -0.60400
O104        O  0.83820593  0.46722215  0.68496141    -0.51300
C105        C  0.77529805  0.46332675  0.69268098     0.70800
O106        O  0.78142082  0.48298411  0.68079327    -0.46100
C107        C  0.80405300  0.42350650  0.62400977     0.75500
O108        O  0.82083289  0.50202929  0.64084286    -0.58000
O109        O  0.81992502  0.42444343  0.64191658    -0.48100
O110        O  0.78848393  0.48577718  0.62335439    -0.54400
C111        C  0.85694544  0.46517561  0.67008880     0.85600
O112        O  0.78612163  0.44365434  0.68467631    -0.56300
O113        O  0.78962322  0.44243922  0.62253248    -0.59600
C114        C  0.92868356  0.46583177  0.70150212     0.87000
C115        C  0.95316407  0.46605707  0.68501936    -0.53200
C116        C  0.97507138  0.46601527  0.69921933     0.09900
C117        C  0.97044629  0.46583198  0.72785972     0.20900
C118        C  0.93156009  0.44265506  0.71894269    -0.54000
C119        C  0.95357205  0.44290126  0.73268084     0.10000
C120        C  0.93118466  0.48871926  0.71928525    -0.53500
C121        C  0.95314856  0.48844872  0.73303735     0.10600
H122        H  0.95312990  0.46603468  0.66442806     0.15100
H123        H  0.98824385  0.46583854  0.73935407     0.00900
H124        H  0.91742812  0.42778897  0.72054403     0.15400
H125        H  0.91668322  0.50322352  0.72136779     0.15200
In126      In  0.81498650  0.61100218  0.50716141     1.36900
C127        C  0.81018588  0.58009370  0.46766230     0.78100
O128        O  0.84516996  0.64105767  0.50914414    -0.60400
O129        O  0.85716727  0.60292243  0.50570102    -0.51300
C130        C  0.78206083  0.64984877  0.50564845     0.70800
O131        O  0.79177619  0.64164290  0.52588941    -0.46100
C132        C  0.80749078  0.58176987  0.54775386     0.75500
O133        O  0.79678590  0.57840267  0.48738860    -0.58000
O134        O  0.82676258  0.59573348  0.54523341    -0.48100
O135        O  0.82525320  0.59859363  0.46747977    -0.54400
C136        C  0.86349729  0.62574854  0.50728342     0.85600
O137        O  0.78960217  0.63849816  0.48602334    -0.56300
O138        O  0.79139030  0.58384555  0.53016554    -0.59600
C139        C  0.93498622  0.65660067  0.50532869     0.87000
C140        C  0.95958290  0.64043382  0.50514792    -0.53200
C141        C  0.98131188  0.65472433  0.50475900     0.09900
C142        C  0.97643378  0.68314590  0.50448760     0.20900
C143        C  0.93781874  0.67426114  0.52832263    -0.54000
C144        C  0.95965568  0.68806323  0.52763596     0.10000
C145        C  0.93710274  0.67390270  0.48195648    -0.53500
C146        C  0.95894776  0.68774507  0.48177456     0.10600
H147        H  0.95976443  0.61997437  0.50565614     0.15100
H148        H  0.99414930  0.69467928  0.50417406     0.00900
H149        H  0.92389490  0.67579001  0.54351383     0.15400
H150        H  0.92260286  0.67537146  0.46731483     0.15200
In151      In  0.81521672  0.31598885  0.50749522     1.36900
C152        C  0.80861199  0.34725039  0.54636738     0.78100
O153        O  0.84614783  0.28734604  0.50051216    -0.60400
O154        O  0.85674346  0.32348711  0.51435585    -0.51300
C155        C  0.78101621  0.27828754  0.50995265     0.70800
O156        O  0.79125773  0.28767830  0.52935691    -0.46100
C157        C  0.81077012  0.34459506  0.46618694     0.75500
O158        O  0.79875000  0.35079456  0.52487497    -0.58000
O159        O  0.82925466  0.32975483  0.46950753    -0.48100
O160        O  0.82133701  0.32712111  0.54827318    -0.54400
C161        C  0.86384750  0.30200438  0.50715920     0.85600
O162        O  0.78865806  0.28782544  0.48946725    -0.56300
O163        O  0.79399313  0.34366969  0.48329310    -0.59600
C164        C  0.93602507  0.27337235  0.50509203     0.87000
C165        C  0.96059619  0.28948205  0.50558122    -0.53200
C166        C  0.98231809  0.27509675  0.50498187     0.09900
C167        C  0.97740126  0.24666692  0.50405142     0.20900
C168        C  0.93840103  0.25674951  0.48130683    -0.54000
C169        C  0.96018232  0.24281699  0.48101099     0.10000
C170        C  0.93849096  0.25507831  0.52758986    -0.53500
C171        C  0.96024667  0.24114228  0.52682809     0.10600
H172        H  0.96076488  0.30993772  0.50616561     0.15100
H173        H  0.99502940  0.23497991  0.50358566     0.00900
H174        H  0.92401773  0.25564561  0.46652148     0.15400
H175        H  0.92412628  0.25289142  0.54228341     0.15200
In176      In  0.81519215  0.46272467  0.36026068     1.36900
C177        C  0.81099299  0.42198935  0.38951708     0.78100
O178        O  0.85767463  0.46153015  0.36661089    -0.60400
O179        O  0.84424004  0.46446179  0.32874106    -0.51300
C180        C  0.77948966  0.46209599  0.32347910     0.70800
O181        O  0.78933457  0.44240751  0.33258223    -0.46100
C182        C  0.81063672  0.50220393  0.39140989     0.75500
O183        O  0.79578447  0.44038288  0.39062097    -0.58000
O184        O  0.82407480  0.50289755  0.37159321    -0.48100
O185        O  0.82776463  0.42384957  0.37245483    -0.54400
C186        C  0.86315801  0.46286663  0.34341500     0.85600
O187        O  0.78794169  0.48212006  0.33314052    -0.56300
O188        O  0.79891779  0.48177862  0.39459314    -0.59600
C189        C  0.93450166  0.46001566  0.31139055     0.87000
C190        C  0.95895499  0.45885330  0.32780255    -0.53200
C191        C  0.98080240  0.45809319  0.31355298     0.09900
C192        C  0.97615703  0.45865519  0.28489816     0.20900
C193        C  0.93802649  0.48309610  0.29408737    -0.54000
C194        C  0.95991204  0.48214345  0.28027804     0.10000
C195        C  0.93622886  0.43708690  0.29347042    -0.53500
C196        C  0.95818543  0.43663458  0.27960999     0.10600
H197        H  0.95895024  0.45865535  0.34839301     0.15100
H198        H  0.99390689  0.45814785  0.27333950     0.00900
H199        H  0.92432499  0.49840453  0.29253046     0.15400
H200        H  0.92124049  0.42313072  0.29136805     0.15200
In201      In  0.52060762  0.31297903  0.80686052     1.36900
C202        C  0.48017337  0.34319750  0.80055807     0.78100
O203        O  0.52130812  0.32099583  0.84875925    -0.60400
O204        O  0.51868721  0.28280624  0.83683395    -0.51300
C205        C  0.52071368  0.27400175  0.77448946     0.70800
O206        O  0.50081343  0.28574919  0.78080335    -0.46100
C207        C  0.56180903  0.34177474  0.80085682     0.75500
O208        O  0.48009046  0.32470428  0.81554873    -0.58000
O209        O  0.55795369  0.32859882  0.82036413    -0.48100
O210        O  0.50064516  0.34574919  0.78838746    -0.54400
C211        C  0.51974584  0.29816218  0.85506258     0.85600
O212        O  0.54070507  0.28194652  0.78507192    -0.56300
O213        O  0.54539096  0.33890683  0.78363615    -0.59600
C214        C  0.51892897  0.26775342  0.92639437     0.87000
C215        C  0.51835523  0.28383055  0.95090716    -0.53200
C216        C  0.51843855  0.26944264  0.97250463     0.09900
C217        C  0.51911990  0.24103176  0.96754582     0.20900
C218        C  0.54255102  0.25070591  0.92899733    -0.54000
C219        C  0.54240955  0.23676261  0.95063057     0.10000
C220        C  0.49595887  0.24983363  0.92861405    -0.53500
C221        C  0.49629000  0.23594343  0.95031167     0.10600
H222        H  0.51787357  0.30428921  0.95111844     0.15100
H223        H  0.51921161  0.22937618  0.98509551     0.00900
H224        H  0.55759393  0.24939207  0.91487522     0.15400
H225        H  0.48114134  0.24808576  0.91432967     0.15200
In226      In  0.66202650  0.46497443  0.80706559     1.36900
C227        C  0.63431090  0.42311357  0.80177066     0.78100
O228        O  0.69243651  0.46863257  0.83713454    -0.60400
O229        O  0.65411581  0.46353681  0.84915108    -0.51300
C230        C  0.70052292  0.46437336  0.77348879     0.70800
O231        O  0.69006525  0.48434898  0.78114042    -0.46100
C232        C  0.63075987  0.50416486  0.79935093     0.75500
O233        O  0.65031988  0.42610991  0.81934163    -0.58000
O234        O  0.64855972  0.50468130  0.81540620    -0.48100
O235        O  0.63300228  0.44129138  0.78644206    -0.54400
C236        C  0.67714136  0.46616904  0.85544286     0.85600
O237        O  0.69175549  0.44468435  0.78353738    -0.56300
O238        O  0.62939546  0.48389885  0.78705958    -0.59600
C239        C  0.70800810  0.46386232  0.92707141     0.87000
C240        C  0.69155476  0.46496227  0.95150585    -0.53200
C241        C  0.70589846  0.46384601  0.97324177     0.09900
C242        C  0.73458786  0.46187813  0.96851345     0.20900
C243        C  0.72729672  0.48555137  0.92974066    -0.54000
C244        C  0.74108619  0.48427340  0.95155101     0.10000
C245        C  0.72406105  0.43961989  0.92964045    -0.53500
C246        C  0.73792321  0.43886644  0.95147374     0.10600
H247        H  0.67089265  0.46634749  0.95155873     0.15100
H248        H  0.74620441  0.46104828  0.98615835     0.00900
H249        H  0.73002508  0.50022261  0.91562620     0.15400
H250        H  0.72492889  0.42491960  0.91531556     0.15200
In251      In  0.51149902  0.60943715  0.80197312     1.36900
C252        C  0.55208852  0.57975647  0.79556923     0.78100
O253        O  0.50758577  0.63958412  0.83202826    -0.60400
O254        O  0.51743341  0.60252671  0.84371760    -0.51300
C255        C  0.51261575  0.64764387  0.76880204     0.70800
O256        O  0.53213888  0.63520719  0.77491442    -0.46100
C257        C  0.47033297  0.58031471  0.79541839     0.75500
O258        O  0.55288313  0.59991276  0.80820111    -0.58000
O259        O  0.47500925  0.59169837  0.81587128    -0.48100
O260        O  0.53076434  0.57531635  0.78552693    -0.54400
C261        C  0.51311255  0.62498680  0.85010601     0.85600
O262        O  0.49257980  0.64089859  0.78011424    -0.56300
O263        O  0.48610709  0.58473394  0.77795648    -0.59600
C264        C  0.51610903  0.65459120  0.92206369     0.87000
C265        C  0.51491753  0.63766986  0.94600098    -0.53200
C266        C  0.51493225  0.65129412  0.96810665     0.09900
C267        C  0.51601981  0.67984273  0.96417419     0.20900
C268        C  0.49344013  0.67284877  0.92460346    -0.54000
C269        C  0.49360406  0.68596369  0.94672951     0.10000
C270        C  0.53998018  0.67115422  0.92567502    -0.53500
C271        C  0.53965325  0.68434662  0.94785949     0.10600
H272        H  0.51417950  0.61722757  0.94547867     0.15100
H273        H  0.51592754  0.69090940  0.98209220     0.00900
H274        H  0.47894919  0.67548625  0.91011137     0.15400
H275        H  0.55513102  0.67291109  0.91172677     0.15200
In276      In  0.36937613  0.45789208  0.80187313     1.36900
C277        C  0.39654937  0.50006663  0.79441426     0.78100
O278        O  0.37828214  0.46062621  0.84368375    -0.60400
O279        O  0.33951504  0.45707344  0.83254403    -0.51300
C280        C  0.32955838  0.45484309  0.76973777     0.70800
O281        O  0.33867784  0.47531342  0.77764729    -0.46100
C282        C  0.40067723  0.41834996  0.79752171     0.75500
O283        O  0.37878393  0.49843203  0.81041327    -0.58000
O284        O  0.38411002  0.42009545  0.81475273    -0.48100
O285        O  0.39979772  0.48038194  0.78141282    -0.54400
C286        C  0.35527885  0.45927464  0.85045456     0.85600
O287        O  0.34084311  0.43565095  0.77822809    -0.56300
O288        O  0.40054142  0.43639411  0.78195340    -0.59600
C289        C  0.32502513  0.46031367  0.92218233     0.87000
C290        C  0.34182322  0.45856255  0.94626339    -0.53200
C291        C  0.32779993  0.45817371  0.96819840     0.09900
C292        C  0.29894084  0.45951227  0.96396526     0.20900
C293        C  0.30648283  0.43789947  0.92402072    -0.54000
C294        C  0.29292269  0.43768701  0.94603522     0.10000
C295        C  0.30826143  0.48391527  0.92603093    -0.53500
C296        C  0.29462247  0.48322368  0.94804120     0.10600
H297        H  0.36244391  0.45768592  0.94597019     0.15100
H298        H  0.28758013  0.45913519  0.98181273     0.00900
H299        H  0.30417257  0.42378675  0.90934638     0.15400
H300        H  0.30685863  0.49916665  0.91254808     0.15200
In301      In  0.51998538  0.16398848  0.65806693     1.36900
C302        C  0.56204066  0.17131499  0.63072114     0.78100
O303        O  0.51496568  0.13317906  0.68709028    -0.60400
O304        O  0.52502870  0.12272138  0.64946241    -0.51300
C305        C  0.51992871  0.19672640  0.69699041     0.70800
O306        O  0.53955354  0.18500164  0.68991257    -0.46100
C307        C  0.47971721  0.16796139  0.62693897     0.75500
O308        O  0.56020357  0.15419547  0.64716730    -0.58000
O309        O  0.48084196  0.15211525  0.64471018    -0.48100
O310        O  0.54274307  0.18542646  0.62911026    -0.54400
C311        C  0.52013270  0.11564045  0.67173231     0.85600
O312        O  0.50023471  0.19138417  0.68444887    -0.56300
O313        O  0.49879184  0.18231853  0.62567238    -0.59600
C314        C  0.51961032  0.04341882  0.69967393     0.87000
C315        C  0.51776387  0.01984396  0.68238788    -0.53200
C316        C  0.51687647  0.99774242  0.69587469     0.09900
C317        C  0.51791721  0.00133237  0.72462359     0.20900
C318        C  0.49667988  0.04147805  0.71784383    -0.54000
C319        C  0.49602025  0.01929826  0.73078759     0.10000
C320        C  0.54318506  0.03884461  0.71649390    -0.53500
C321        C  0.54199922  0.01671824  0.72952578     0.10600
H322        H  0.51721310  0.02059507  0.66181839     0.15100
H323        H  0.51719554  0.98340607  0.73555640     0.00900
H324        H  0.48264718  0.05633628  0.72051526     0.15400
H325        H  0.55880769  0.05212460  0.71850843     0.15200
In326      In  0.66771661  0.16438498  0.51227969     1.36900
C327        C  0.63806160  0.16906485  0.47160779     0.78100
O328        O  0.65865262  0.12302034  0.51336200    -0.60400
O329        O  0.69759573  0.13384731  0.51065613    -0.51300
C330        C  0.70471473  0.19937424  0.51222170     0.70800
O331        O  0.69448349  0.19106633  0.49232881    -0.46100
C332        C  0.63888145  0.17037896  0.55337211     0.75500
O333        O  0.65660995  0.15392773  0.47235177    -0.58000
O334        O  0.65731714  0.15509784  0.55264834    -0.48100
O335        O  0.63547651  0.18238524  0.49122637    -0.54400
C336        C  0.68158088  0.11614596  0.51188906     0.85600
O337        O  0.69657356  0.18922743  0.53221347    -0.56300
O338        O  0.63571537  0.18290936  0.53332063    -0.59600
C339        C  0.71014514  0.04438624  0.50993970     0.87000
C340        C  0.69342352  0.02031213  0.51002556    -0.53200
C341        C  0.70757712  0.99857251  0.50872361     0.09900
C342        C  0.73637192  0.00301001  0.50744350     0.20900
C343        C  0.72887970  0.04095727  0.53216047    -0.54000
C344        C  0.74250583  0.01915681  0.53064121     0.10000
C345        C  0.72660727  0.04237323  0.48590758    -0.53500
C346        C  0.74024331  0.02061789  0.48483485     0.10600
H347        H  0.67274477  0.02047932  0.51111032     0.15100
H348        H  0.74783685  0.98536878  0.50633667     0.00900
H349        H  0.73130398  0.05453121  0.54739586     0.15400
H350        H  0.72769891  0.05689207  0.47140611     0.15200
In351      In  0.52092558  0.15974132  0.36368428     1.36900
C352        C  0.47825973  0.16606679  0.39078162     0.78100
O353        O  0.52227283  0.11815869  0.37229230    -0.60400
O354        O  0.52463039  0.12975569  0.33376509    -0.51300
C355        C  0.52136573  0.19322107  0.32559513     0.70800
O356        O  0.50202245  0.18040540  0.33135987    -0.46100
C357        C  0.56061401  0.16593424  0.39453540     0.75500
O358        O  0.48118273  0.14803449  0.37546277    -0.58000
O359        O  0.56171889  0.15227617  0.37500433    -0.48100
O360        O  0.49673232  0.18119331  0.39144188    -0.54400
C361        C  0.52441939  0.11175987  0.34938739     0.85600
O362        O  0.54061848  0.18864565  0.33908670    -0.56300
O363        O  0.53945846  0.17671876  0.39782441    -0.59600
C364        C  0.52649702  0.04093073  0.31877244     0.87000
C365        C  0.52630897  0.01660394  0.33495203    -0.53200
C366        C  0.52548453  0.99514970  0.32052789     0.09900
C367        C  0.52497148  0.00004985  0.29188742     0.20900
C368        C  0.54933519  0.03803615  0.30061540    -0.54000
C369        C  0.54826009  0.01653318  0.28655215     0.10000
C370        C  0.50277910  0.03906492  0.30165725    -0.53500
C371        C  0.50221621  0.01758138  0.28758520     0.10600
H372        H  0.52659967  0.01640915  0.35553973     0.15100
H373        H  0.52429891  0.98262953  0.28016450     0.00900
H374        H  0.56432761  0.05199067  0.29847483     0.15400
H375        H  0.48823616  0.05361782  0.30031167     0.15200
In376      In  0.51894294  0.30808295  0.21416219     1.36900
C377        C  0.55758196  0.33983037  0.22202971     0.78100
O378        O  0.51973212  0.27897634  0.18299178    -0.60400
O379        O  0.52083099  0.31759525  0.17248867    -0.51300
C380        C  0.52015967  0.27002774  0.24770263     0.70800
O381        O  0.53992166  0.28093859  0.23980384    -0.46100
C382        C  0.47616545  0.33463054  0.21887300     0.75500
O383        O  0.55967884  0.32033303  0.20848145    -0.58000
O384        O  0.47960010  0.31893696  0.20125213    -0.48100
O385        O  0.53597651  0.34257394  0.23210054    -0.54400
C386        C  0.52039533  0.29497413  0.16531109     0.85600
O387        O  0.49981573  0.27824788  0.23807162    -0.56300
O388        O  0.49400386  0.33557456  0.23486609    -0.59600
C389        C  0.51917918  0.26632179  0.09314299     0.87000
C390        C  0.51833371  0.28278522  0.06889688    -0.53200
C391        C  0.51806745  0.26875006  0.04706632     0.09900
C392        C  0.51865730  0.24024057  0.05154540     0.20900
C393        C  0.49609238  0.24850877  0.09096303    -0.54000
C394        C  0.49605432  0.23492178  0.06904979     0.10000
C395        C  0.54269301  0.24920430  0.08986430    -0.53500
C396        C  0.54219313  0.23558191  0.06801085     0.10600
H397        H  0.51808533  0.30325154  0.06901517     0.15100
H398        H  0.51845877  0.22888259  0.03380455     0.00900
H399        H  0.48153165  0.24652149  0.10548916     0.15400
H400        H  0.55795866  0.24764540  0.10370722     0.15200
In401      In  0.66165379  0.45939909  0.21286534     1.36900
C402        C  0.63109902  0.49997628  0.21401427     0.78100
O403        O  0.69262176  0.46425898  0.18357819    -0.60400
O404        O  0.65622606  0.45176337  0.17115303    -0.51300
C405        C  0.70041883  0.46052603  0.24637699     0.70800
O406        O  0.69093450  0.48013718  0.23668865    -0.46100
C407        C  0.63229567  0.41915872  0.22166231     0.75500
O408        O  0.63503564  0.48631284  0.23319622    -0.58000
O409        O  0.65162472  0.41850523  0.20745733    -0.48100
O410        O  0.64338418  0.49330754  0.19464067    -0.54400
C411        C  0.67862465  0.45793849  0.16519666     0.85600
O412        O  0.69031732  0.44042658  0.23864377    -0.56300
O413        O  0.62848335  0.44022173  0.23204991    -0.59600
C414        C  0.70985340  0.46028080  0.09378000     0.87000
C415        C  0.69308465  0.46146081  0.06963554    -0.53200
C416        C  0.70714391  0.46206143  0.04772493     0.09900
C417        C  0.73603108  0.46134077  0.05204629     0.20900
C418        C  0.72713374  0.43711353  0.09015341    -0.54000
C419        C  0.74082684  0.43791987  0.06827488     0.10000
C420        C  0.72793076  0.48311896  0.09179801    -0.53500
C421        C  0.74159285  0.48343203  0.06978965     0.10600
H422        H  0.67237839  0.46182654  0.06988454     0.15100
H423        H  0.74745234  0.46172765  0.03425983     0.00900
H424        H  0.72890268  0.42193361  0.10387734     0.15400
H425        H  0.73012025  0.49723636  0.10655338     0.15200
In426      In  0.51281490  0.60721097  0.20766294     1.36900
C427        C  0.47468935  0.57466002  0.21506239     0.78100
O428        O  0.50426034  0.60260244  0.16605402    -0.60400
O429        O  0.52026258  0.63726785  0.17819822    -0.51300
C430        C  0.51215669  0.64475097  0.24204416     0.70800
O431        O  0.49209257  0.63581384  0.23242456    -0.46100
C432        C  0.55439616  0.57820709  0.21105824     0.75500
O433        O  0.47137511  0.59558178  0.20415671    -0.58000
O434        O  0.54774164  0.58890411  0.19075165    -0.48100
O435        O  0.49695647  0.57126468  0.22325402    -0.54400
C436        C  0.51230064  0.62408103  0.15995821     0.85600
O437        O  0.53231849  0.63485162  0.23368495    -0.56300
O438        O  0.54046872  0.58339572  0.22985544    -0.59600
C439        C  0.51383151  0.65436030  0.08832409     0.87000
C440        C  0.51373745  0.63762640  0.06426033    -0.53200
C441        C  0.51413528  0.65140499  0.04227543     0.09900
C442        C  0.51458013  0.67997323  0.04645581     0.20900
C443        C  0.53742365  0.67143167  0.08562009    -0.54000
C444        C  0.53753192  0.68485336  0.06360487     0.10000
C445        C  0.49087050  0.67220692  0.08526028    -0.53500
C446        C  0.49151899  0.68556947  0.06325929     0.10600
H447        H  0.51332224  0.61716635  0.06461169     0.15100
H448        H  0.51486688  0.69119418  0.02863763     0.00900
H449        H  0.55200606  0.67344769  0.10010769     0.15400
H450        H  0.47598308  0.67455875  0.09940795     0.15200
In451      In  0.37159756  0.45336462  0.20926657     1.36900
C452        C  0.39932621  0.41171607  0.21558747     0.78100
O453        O  0.38031312  0.45652180  0.16757084    -0.60400
O454        O  0.34164472  0.45182886  0.17857978    -0.51300
C455        C  0.33376622  0.45408099  0.24358804     0.70800
O456        O  0.34044053  0.43441132  0.23196526    -0.46100
C457        C  0.40177701  0.49336809  0.21479939     0.75500
O458        O  0.38565544  0.41545994  0.19630619    -0.58000
O459        O  0.38044289  0.49452716  0.20381057    -0.48100
O460        O  0.39801273  0.42887779  0.23208000    -0.54400
C461        C  0.35745735  0.45426471  0.16070419     0.85600
O462        O  0.34606395  0.47343507  0.23725975    -0.56300
O463        O  0.40727213  0.47188841  0.22346683    -0.59600
C464        C  0.32788755  0.45411530  0.08881448     0.87000
C465        C  0.34409175  0.45458642  0.06421838    -0.53200
C466        C  0.32941686  0.45486099  0.04267703     0.09900
C467        C  0.30068902  0.45468250  0.04775347     0.20900
C468        C  0.31004737  0.47707375  0.08679986    -0.54000
C469        C  0.29585481  0.47713184  0.06524439     0.10000
C470        C  0.31026947  0.43104567  0.08605537    -0.53500
C471        C  0.29608690  0.43160282  0.06442886     0.10600
H472        H  0.36474902  0.45476866  0.06391985     0.15100
H473        H  0.28881605  0.45497025  0.03027140     0.00900
H474        H  0.30836603  0.49162579  0.10137703     0.15400
H475        H  0.30872769  0.41610382  0.10011339     0.15200
In476      In  0.22072046  0.45464362  0.35795141     1.36900
C477        C  0.22526700  0.49405378  0.38929234     0.78100
O478        O  0.17823888  0.45307907  0.36378363    -0.60400
O479        O  0.19227544  0.45382271  0.32594557    -0.51300
C480        C  0.25532243  0.45509352  0.32074925     0.70800
O481        O  0.24662668  0.47499134  0.33057650    -0.46100
C482        C  0.22803730  0.41366966  0.38599896     0.75500
O483        O  0.21093608  0.49443493  0.37010508    -0.58000
O484        O  0.20845034  0.41677989  0.37248476    -0.48100
O485        O  0.23747193  0.47381996  0.39200558    -0.54400
C486        C  0.17314788  0.45299716  0.34043775     0.85600
O487        O  0.24586554  0.43515041  0.32959423    -0.56300
O488        O  0.24415777  0.43117777  0.38447852    -0.59600
C489        C  0.10157955  0.45364964  0.30886469     0.87000
C490        C  0.07757538  0.45372532  0.32597168    -0.53200
C491        C  0.05535451  0.45531005  0.31240656     0.09900
C492        C  0.05923474  0.45661129  0.28366763     0.20900
C493        C  0.09762931  0.43167481  0.29019570    -0.54000
C494        C  0.07533945  0.43350690  0.27706574     0.10000
C495        C  0.09937302  0.47761479  0.29252486    -0.53500
C496        C  0.07709688  0.47892134  0.27936094     0.10600
H497        H  0.07813811  0.45269576  0.34652889     0.15100
H498        H  0.04118798  0.45788868  0.27264596     0.00900
H499        H  0.11138116  0.41663400  0.28715260     0.15400
H500        H  0.11424962  0.49176643  0.29098289     0.15200
In501      In  0.22423204  0.31141670  0.50549986     1.36900
C502        C  0.23090847  0.33799729  0.46332039     0.78100
O503        O  0.18219512  0.31985466  0.50768750    -0.60400
O504        O  0.19367670  0.28165464  0.50389207    -0.51300
C505        C  0.25809905  0.27347229  0.50658728     0.70800
O506        O  0.25146062  0.28548307  0.52610717    -0.46100
C507        C  0.22841361  0.34254062  0.54501252     0.75500
O508        O  0.24691431  0.33805854  0.48118915    -0.58000
O509        O  0.23722828  0.34752435  0.52334470    -0.48100
O510        O  0.21220932  0.32348079  0.46666627    -0.54400
C511        C  0.17555413  0.29717821  0.50571183     0.85600
O512        O  0.24753086  0.28097639  0.48653991    -0.56300
O513        O  0.21840356  0.32099976  0.54681041    -0.59600
C514        C  0.10292121  0.26888961  0.50402275     0.87000
C515        C  0.07918060  0.28623810  0.50418458    -0.53200
C516        C  0.05676823  0.27303782  0.50365163     0.09900
C517        C  0.06021990  0.24438032  0.50297314     0.20900
C518        C  0.09932353  0.25097375  0.52672062    -0.54000
C519        C  0.07686946  0.23816533  0.52591288     0.10000
C520        C  0.09987914  0.25206729  0.48040993    -0.53500
C521        C  0.07739649  0.23926454  0.48012967     0.10600
H522        H  0.08003495  0.30667873  0.50482855     0.15100
H523        H  0.04200614  0.23366452  0.50253053     0.00900
H524        H  0.11344121  0.24817905  0.54154013     0.15400
H525        H  0.11435464  0.24993166  0.46581581     0.15200
In526      In  0.37180940  0.16020869  0.50863292     1.36900
C527        C  0.40249788  0.16575431  0.54884761     0.78100
O528        O  0.34246085  0.12956774  0.51343359    -0.60400
O529        O  0.38065328  0.11877141  0.50525030    -0.51300
C530        C  0.33314149  0.19345046  0.50842769     0.70800
O531        O  0.34062835  0.18211195  0.48882804    -0.46100
C532        C  0.39980482  0.16703288  0.46686805     0.75500
O533        O  0.38509738  0.14941247  0.54791931    -0.58000
O534        O  0.38251337  0.15061424  0.46831331    -0.48100
O535        O  0.40369250  0.17964161  0.52950728    -0.54400
C536        C  0.35806814  0.11186907  0.50943977     0.85600
O537        O  0.34490559  0.18721423  0.52826110    -0.56300
O538        O  0.40198328  0.18054156  0.48639772    -0.59600
C539        C  0.32780212  0.04079950  0.50726647     0.87000
C540        C  0.34368986  0.01614763  0.50627036    -0.53200
C541        C  0.32876891  0.99495737  0.50499540     0.09900
C542        C  0.30009841  0.00041401  0.50490922     0.20900
C543        C  0.31041965  0.03980509  0.48376092    -0.54000
C544        C  0.29600469  0.01853070  0.48275532     0.10000
C545        C  0.30971433  0.03757314  0.53004269    -0.53500
C546        C  0.29526400  0.01634257  0.52859706     0.10600
H547        H  0.36438819  0.01556113  0.50650357     0.15100
H548        H  0.28801604  0.98321704  0.50389528     0.00900
H549        H  0.30929838  0.05464525  0.46960161     0.15400
H550        H  0.30815446  0.05100144  0.54552441     0.15200
In551      In  0.21984596  0.60235500  0.50535985     1.36900
C552        C  0.22125077  0.57214295  0.54587168     0.78100
O553        O  0.17797324  0.59926938  0.49679349    -0.60400
O554        O  0.19151533  0.63312517  0.51362499    -0.51300
C555        C  0.25347765  0.64057301  0.50578832     0.70800
O556        O  0.24557062  0.62992905  0.52563101    -0.46100
C557        C  0.22677974  0.57191380  0.46559249     0.75500
O558        O  0.24059840  0.57652258  0.53237359    -0.58000
O559        O  0.21307054  0.59142606  0.46459640    -0.48100
O560        O  0.20146518  0.58375098  0.53900296    -0.54400
C561        C  0.17274021  0.62082308  0.50532197     0.85600
O562        O  0.24426592  0.63157691  0.48565478    -0.56300
O563        O  0.23804717  0.56883516  0.48646432    -0.59600
C564        C  0.10270100  0.65488018  0.50670975     0.87000
C565        C  0.07778454  0.63932296  0.50723125    -0.53200
C566        C  0.05637367  0.65412086  0.50735069     0.09900
C567        C  0.06187073  0.68243826  0.50706310     0.20900
C568        C  0.10026623  0.67213826  0.48337866    -0.54000
C569        C  0.07875495  0.68649109  0.48380897     0.10000
C570        C  0.10103067  0.67265876  0.52972831    -0.53500
C571        C  0.07951586  0.68704411  0.52966642     0.10600
H572        H  0.07717155  0.61886588  0.50712689     0.15100
H573        H  0.04441791  0.69441183  0.50716893     0.00900
H574        H  0.11423700  0.67305830  0.46818574     0.15400
H575        H  0.11558530  0.67403392  0.54432187     0.15200
In576      In  0.21591619  0.45671659  0.65540759     1.36900
C577        C  0.22308190  0.41831912  0.62348522     0.78100
O578        O  0.17410441  0.44731474  0.65328564    -0.60400
O579        O  0.18669963  0.47041874  0.68366839    -0.51300
C580        C  0.24915329  0.45408577  0.69431863     0.70800
O581        O  0.24104402  0.47444343  0.68505002    -0.46100
C582        C  0.21957348  0.49661157  0.62457707     0.75500
O583        O  0.20951953  0.41629903  0.64318455    -0.58000
O584        O  0.19895641  0.48948926  0.63442701    -0.48100
O585        O  0.23353900  0.43952445  0.62087024    -0.54400
C586        C  0.16818910  0.46013864  0.67249343     0.85600
O587        O  0.23992852  0.43473199  0.68396396    -0.56300
O588        O  0.23874267  0.48379440  0.63117889    -0.59600
C589        C  0.09630158  0.46480934  0.70253782     0.87000
C590        C  0.07198814  0.46505867  0.68585381    -0.53200
C591        C  0.04995780  0.46440054  0.69985439     0.09900
C592        C  0.05435743  0.46349636  0.72854415     0.20900
C593        C  0.09318563  0.48727901  0.72084427    -0.54000
C594        C  0.07106965  0.48633558  0.73442789     0.10000
C595        C  0.09384110  0.44127869  0.71931958    -0.53500
C596        C  0.07184094  0.44083426  0.73286230     0.10600
H597        H  0.07221061  0.46580586  0.66527578     0.15100
H598        H  0.03648831  0.46285172  0.73991864     0.00900
H599        H  0.10728803  0.50206968  0.72322519     0.15400
H600        H  0.10838353  0.42673330  0.72085163     0.15200
In601      In  0.86990834  0.66325201  0.01074483     1.36900
C602        C  0.89452215  0.66860616  0.05456938     0.78100
O603        O  0.87916693  0.62211953  0.00462300    -0.60400
O604        O  0.84094421  0.63188915  0.01356059    -0.51300
C605        C  0.83143724  0.69664118  0.00820439     0.70800
O606        O  0.84207608  0.68760581  0.98882672    -0.46100
C607        C  0.90236399  0.67269700  0.97295822     0.75500
O608        O  0.88335876  0.64850741  0.04837656    -0.58000
O609        O  0.88084933  0.66269066  0.96956349    -0.48100
O610        O  0.89239271  0.68622961  0.03862819    -0.54400
C611        C  0.85684162  0.61460290  0.00896485     0.85600
O612        O  0.83987745  0.68792787  0.02877074    -0.56300
O613        O  0.90717180  0.67812246  0.99572201    -0.59600
C614        C  0.82880458  0.54254675  0.01062322     0.87000
C615        C  0.84525771  0.51821571  0.01039221    -0.53200
C616        C  0.83079515  0.49665943  0.01060540     0.09900
C617        C  0.80202349  0.50148063  0.01111600     0.20900
C618        C  0.81083692  0.53993462  0.98773305    -0.54000
C619        C  0.79692758  0.51835237  0.98820274     0.10000
C620        C  0.81140532  0.54007195  0.03407384    -0.53500
C621        C  0.79742901  0.51844405  0.03410553     0.10600
H622        H  0.86595435  0.51809217  0.00971303     0.15100
H623        H  0.79031498  0.48400695  0.01124718     0.00900
H624        H  0.80903846  0.55394586  0.97280901     0.15400
H625        H  0.80982932  0.55430463  0.04880637     0.15200
In626      In  0.01758525  0.66376463  0.86439674     1.36900
C627        C  0.97912365  0.67502744  0.89546658     0.78100
O628        O  0.02435524  0.63111687  0.83799571    -0.60400
O629        O  0.00506882  0.62378897  0.87257073    -0.51300
C630        C  0.01868899  0.69544981  0.82462350     0.70800
O631        O  0.99855679  0.68517936  0.83246466    -0.46100
C632        C  0.05963443  0.66780237  0.89217027     0.75500
O633        O  0.97567129  0.66699176  0.87322282    -0.58000
O634        O  0.05449718  0.64834047  0.87939050    -0.48100
O635        O  0.00214961  0.67839506  0.90125897    -0.54400
C636        C  0.01380901  0.61510110  0.85214584     0.85600
O637        O  0.03827111  0.68932512  0.83694854    -0.56300
O638        O  0.04362343  0.68546835  0.88999710    -0.59600
C639        C  0.01121890  0.54416891  0.82236682     0.87000
C640        C  0.01101595  0.51957255  0.83811236    -0.53200
C641        C  0.01094687  0.49837458  0.82328909     0.09900
C642        C  0.01095284  0.50375666  0.79474190     0.20900
C643        C  0.03457074  0.54182494  0.80472496    -0.54000
C644        C  0.03418464  0.52053251  0.79029150     0.10000
C645        C  0.98797330  0.54234620  0.80466264    -0.53500
C646        C  0.98808730  0.52111402  0.79020896     0.10600
H647        H  0.01121495  0.51901306  0.85869861     0.15100
H648        H  0.01082289  0.48652533  0.78271894     0.00900
H649        H  0.04959599  0.55584721  0.80342691     0.15400
H650        H  0.97333032  0.55678583  0.80314225     0.15200
In651      In  0.16405164  0.65989532  0.01137323     1.36900
C652        C  0.13693147  0.66611232  0.96912884     0.78100
O653        O  0.15579964  0.61848000  0.01749891    -0.60400
O654        O  0.19370030  0.62911745  0.00854676    -0.51300
C655        C  0.20228606  0.69358200  0.01136050     0.70800
O656        O  0.19463139  0.68243398  0.99173373    -0.46100
C657        C  0.13177098  0.66806038  0.04966271     0.75500
O658        O  0.15013750  0.64666824  0.97331300    -0.58000
O659        O  0.15337343  0.65797450  0.05288464    -0.48100
O660        O  0.13845800  0.68274272  0.98612482    -0.54400
C661        C  0.17833627  0.61148695  0.01323551     0.85600
O662        O  0.19086827  0.68696503  0.03130488    -0.56300
O663        O  0.12714958  0.67432633  0.02710001    -0.59600
C664        C  0.20831321  0.54008351  0.01058335     0.87000
C665        C  0.19183644  0.51591376  0.00904702    -0.53200
C666        C  0.20616707  0.49432096  0.00756351     0.09900
C667        C  0.23498161  0.49895409  0.00766096     0.20900
C668        C  0.22608574  0.53590014  0.03342804    -0.54000
C669        C  0.24000326  0.51431110  0.03163997     0.10000
C670        C  0.22597126  0.53905887  0.98721571    -0.53500
C671        C  0.23988460  0.51738901  0.98593457     0.10600
H672        H  0.17106569  0.51590549  0.00942862     0.15100
H673        H  0.24660807  0.48143182  0.00647105     0.00900
H674        H  0.22792903  0.54911551  0.04926900     0.15400
H675        H  0.22772090  0.55410840  0.97354343     0.15200
In676      In  0.01406229  0.66666897  0.15782838     1.36900
C677        C  0.05328769  0.67273728  0.12613528     0.78100
O678        O  0.01541251  0.63569863  0.18729588    -0.60400
O679        O  0.01791792  0.62550535  0.14841763    -0.51300
C680        C  0.01530732  0.70121838  0.19515121     0.70800
O681        O  0.03460991  0.69494260  0.18242821    -0.46100
C682        C  0.97037961  0.67094221  0.13234272     0.75500
O683        O  0.03149198  0.68192493  0.12189994    -0.58000
O684        O  0.97559104  0.65221406  0.14608258    -0.48100
O685        O  0.05517381  0.66132859  0.14702221    -0.54400
C686        C  0.01751332  0.61825477  0.17111922     0.85600
O687        O  0.99545835  0.68914603  0.18944514    -0.56300
O688        O  0.98711794  0.68799570  0.13246446    -0.59600
C689        C  0.01968865  0.54506528  0.19648658     0.87000
C690        C  0.01889441  0.52204230  0.17834503    -0.53200
C691        C  0.01851576  0.49944972  0.19105210     0.09900
C692        C  0.01905076  0.50209345  0.21992366     0.20900
C693        C  0.99655633  0.54172226  0.21414475    -0.54000
C694        C  0.99646986  0.51912589  0.22631304     0.10000
C695        C  0.04312263  0.54068716  0.21355120    -0.53500
C696        C  0.04252090  0.51808251  0.22576652     0.10600
H697        H  0.01836548  0.52350103  0.15781616     0.15100
H698        H  0.01874513  0.48380169  0.23024245     0.00900
H699        H  0.98201150  0.55603173  0.21714988     0.15400
H700        H  0.05822950  0.55440905  0.21630254     0.15200
In701      In  0.72177088  0.95556888  0.85646339     1.36900
C702        C  0.72750102  0.99504610  0.88703048     0.78100
O703        O  0.68013624  0.95822505  0.86563570    -0.60400
O704        O  0.69084820  0.95244502  0.82711725    -0.51300
C705        C  0.75508400  0.95642068  0.81792725     0.70800
O706        O  0.74779087  0.93641899  0.82848017    -0.46100
C707        C  0.72662514  0.91457935  0.88495786     0.75500
O708        O  0.71198738  0.99496785  0.86877493    -0.58000
O709        O  0.70908245  0.91714873  0.86884868    -0.48100
O710        O  0.74101299  0.97545573  0.88871279    -0.54400
C711        C  0.67308182  0.95515510  0.84305005     0.85600
O712        O  0.74495442  0.97608987  0.82677808    -0.56300
O713        O  0.74238791  0.93247483  0.88557520    -0.59600
C714        C  0.60045526  0.95534287  0.81538055     0.87000
C715        C  0.57644961  0.95612382  0.83239478    -0.53200
C716        C  0.55431895  0.95695311  0.81865146     0.09900
C717        C  0.55829571  0.95689514  0.78987234     0.20900
C718        C  0.59674473  0.93250239  0.79778376    -0.54000
C719        C  0.57457536  0.93360586  0.78443266     0.10000
C720        C  0.59825456  0.97849256  0.79793645    -0.53500
C721        C  0.57608740  0.97905596  0.78459554     0.10600
H722        H  0.57693169  0.95614589  0.85298278     0.15100
H723        H  0.54031965  0.95757192  0.77869899     0.00900
H724        H  0.61070112  0.91752452  0.79538023     0.15400
H725        H  0.61308655  0.99261662  0.79578954     0.15200
In726      In  0.71962073  0.81205943  0.00510673     1.36900
C727        C  0.72482485  0.83982733  0.96351644     0.78100
O728        O  0.68768864  0.78388343  0.00225398    -0.60400
O729        O  0.67811150  0.82201419  0.01018093    -0.51300
C730        C  0.75337372  0.77394619  0.00497271     0.70800
O731        O  0.74493540  0.78371309  0.98489236    -0.46100
C732        C  0.72836794  0.84118905  0.04527732     0.75500
O733        O  0.74144462  0.83919251  0.98079481    -0.58000
O734        O  0.71600316  0.82088254  0.04676238    -0.48100
O735        O  0.70595625  0.82558979  0.96719702    -0.54400
C736        C  0.67037189  0.79987603  0.00649021     0.85600
O737        O  0.74392286  0.78312704  0.02486607    -0.56300
O738        O  0.73662495  0.84617125  0.02341368    -0.59600
C739        C  0.59775268  0.77196330  0.00656004     0.87000
C740        C  0.57344316  0.78845938  0.00538371    -0.53200
C741        C  0.55150086  0.77450363  0.00506372     0.09900
C742        C  0.55595844  0.74593068  0.00588082     0.20900
C743        C  0.59430588  0.75504655  0.03004520    -0.54000
C744        C  0.57236270  0.74137846  0.02940911     0.10000
C745        C  0.59580036  0.75389564  0.98378412    -0.53500
C746        C  0.57383422  0.74026644  0.98367563     0.10600
H747        H  0.57359260  0.80892341  0.00497102     0.15100
H748        H  0.53815735  0.73456145  0.00559995     0.00900
H749        H  0.60830402  0.75331034  0.04513874     0.15400
H750        H  0.61067431  0.75155163  0.96962195     0.15200
In751      In  0.72346363  0.10338958  0.00374861     1.36900
C752        C  0.72837673  0.07569238  0.04538210     0.78100
O753        O  0.69388271  0.13410354  0.00133734    -0.60400
O754        O  0.68131815  0.09659277  0.00796562    -0.51300
C755        C  0.75821691  0.14062344  0.00312660     0.70800
O756        O  0.75089303  0.12997751  0.02317115    -0.46100
C757        C  0.72753154  0.07184819  0.96438197     0.75500
O758        O  0.74293189  0.07346260  0.02646821    -0.58000
O759        O  0.74165774  0.07060937  0.98361789    -0.48100
O760        O  0.71203567  0.09306211  0.04349704    -0.54400
C761        C  0.67537184  0.11942081  0.00515206     0.85600
O762        O  0.74772058  0.13227417  0.98336590    -0.56300
O763        O  0.71188021  0.08987759  0.96480746    -0.59600
C764        C  0.60401692  0.15096398  0.00817287     0.87000
C765        C  0.57960211  0.13461216  0.00803537    -0.53200
C766        C  0.55771897  0.14873715  0.00825720     0.09900
C767        C  0.56227388  0.17719753  0.00857346     0.20900
C768        C  0.60131017  0.16871704  0.98523551    -0.54000
C769        C  0.57935012  0.18238992  0.98571559     0.10000
C770        C  0.60139147  0.16819459  0.03159285    -0.53500
C771        C  0.57936974  0.18189319  0.03151530     0.10600
H772        H  0.57965204  0.11414900  0.00778019     0.15100
H773        H  0.54444107  0.18861217  0.00870858     0.00900
H774        H  0.61556103  0.17063742  0.97039765     0.15400
H775        H  0.61570305  0.16976946  0.04639718     0.15200
In776      In  0.72162026  0.95793836  0.15086322     1.36900
C777        C  0.72953285  0.91743885  0.12210547     0.78100
O778        O  0.67977062  0.95583198  0.14210292    -0.60400
O779        O  0.69139181  0.95782687  0.18076428    -0.51300
C780        C  0.75438411  0.95947126  0.18958363     0.70800
O781        O  0.74697365  0.93918222  0.17969731    -0.46100
C782        C  0.72647357  0.99880622  0.12198775     0.75500
O783        O  0.71429827  0.91738606  0.14059510    -0.58000
O784        O  0.70835762  0.99607053  0.13745947    -0.48100
O785        O  0.74116466  0.93794350  0.11891472    -0.54400
C786        C  0.67329087  0.95654079  0.16509821     0.85600
O787        O  0.74484457  0.97895058  0.17978755    -0.56300
O788        O  0.74238877  0.98097459  0.12191691    -0.59600
C789        C  0.60252754  0.95756179  0.19689128     0.87000
C790        C  0.57776810  0.95833816  0.18109702    -0.53200
C791        C  0.55637525  0.95934962  0.19587876     0.09900
C792        C  0.56168113  0.95954282  0.22442484     0.20900
C793        C  0.60136414  0.98086014  0.21426823    -0.54000
C794        C  0.57986052  0.98162945  0.22870009     0.10000
C795        C  0.59950154  0.93482243  0.21481447    -0.53500
C796        C  0.57794812  0.93610455  0.22917804     0.10600
H797        H  0.57722731  0.95790198  0.16051466     0.15100
H798        H  0.54421088  0.96037640  0.23638089     0.00900
H799        H  0.61641605  0.99484641  0.21562997     0.15400
H800        H  0.61317356  0.91947854  0.21623232     0.15200
In801      In  0.30941664  0.81327150  0.00504004     1.36900
C802        C  0.30655209  0.84245161  0.04629009     0.78100
O803        O  0.33988326  0.78331299  0.00655294    -0.60400
O804        O  0.35122539  0.82157455  0.00235200    -0.51300
C805        C  0.27650638  0.77436951  0.00727769     0.70800
O806        O  0.28526661  0.78287950  0.98674188    -0.46100
C807        C  0.30370669  0.84234768  0.96388425     0.75500
O808        O  0.28924298  0.84202701  0.02965648    -0.58000
O809        O  0.31862323  0.82373803  0.96448993    -0.48100
O810        O  0.32460759  0.82730766  0.04220147    -0.54400
C811        C  0.35792609  0.79887631  0.00425980     0.85600
O812        O  0.28451603  0.78578541  0.02661099    -0.56300
O813        O  0.29056124  0.84504539  0.98372968    -0.59600
C814        C  0.43079374  0.77117472  0.00430258     0.87000
C815        C  0.45468980  0.78832210  0.00426620    -0.53200
C816        C  0.47701507  0.77482116  0.00455280     0.09900
C817        C  0.47330945  0.74625188  0.00487881     0.20900
C818        C  0.43418500  0.75357210  0.98134254    -0.54000
C819        C  0.45658936  0.74062832  0.98189930     0.10000
C820        C  0.43382178  0.75403944  0.02766513    -0.53500
C821        C  0.45619761  0.74104464  0.02770600     0.10600
H822        H  0.45399248  0.80877441  0.00394994     0.15100
H823        H  0.49142364  0.73530648  0.00511451     0.00900
H824        H  0.42006763  0.75119806  0.96645376     0.15400
H825        H  0.41938597  0.75183506  0.04228584     0.15200
In826      In  0.31250962  0.95975819  0.85652753     1.36900
C827        C  0.30719558  0.91971615  0.88691066     0.78100
O828        O  0.35395719  0.96295458  0.86628473    -0.60400
O829        O  0.34396350  0.95528344  0.82791430    -0.51300
C830        C  0.27829472  0.96043393  0.81846436     0.70800
O831        O  0.29071813  0.97962497  0.82505376    -0.46100
C832        C  0.30706803  0.00144634  0.88403640     0.75500
O833        O  0.32256902  0.91989641  0.86850027    -0.58000
O834        O  0.32365401  0.99927263  0.86689378    -0.48100
O835        O  0.29428899  0.93964844  0.88917141    -0.54400
C836        C  0.36140448  0.95929591  0.84390868     0.85600
O837        O  0.28399465  0.94089411  0.83075686    -0.56300
O838        O  0.29242208  0.98273428  0.88619899    -0.59600
C839        C  0.43388372  0.96088300  0.81604732     0.87000
C840        C  0.45803393  0.96056926  0.83285315    -0.53200
C841        C  0.48007214  0.96022655  0.81892525     0.09900
C842        C  0.47587124  0.96029626  0.79018737     0.20900
C843        C  0.43698485  0.98388029  0.79850573    -0.54000
C844        C  0.45912736  0.98336083  0.78503611     0.10000
C845        C  0.43644364  0.93782731  0.79858025    -0.53500
C846        C  0.45851525  0.93773389  0.78509892     0.10600
H847        H  0.45771134  0.96042905  0.85344354     0.15100
H848        H  0.49378111  0.96000733  0.77888216     0.00900
H849        H  0.42290352  0.99881093  0.79661745     0.15400
H850        H  0.42196564  0.92331579  0.79664420     0.15200
In851      In  0.01573012  0.25720283  0.85332492     1.36900
C852        C  0.05699238  0.24843273  0.88170712     0.78100
O853        O  0.01175018  0.28912163  0.82537473    -0.60400
O854        O  0.01993391  0.29807543  0.86381717    -0.51300
C855        C  0.01442532  0.22474839  0.81414044     0.70800
O856        O  0.03463523  0.23488040  0.82197532    -0.46100
C857        C  0.97504946  0.25321941  0.88332979     0.75500
O858        O  0.05684411  0.26409344  0.86370384    -0.58000
O859        O  0.97717263  0.27026073  0.86684100    -0.48100
O860        O  0.03639400  0.23651604  0.88437283    -0.54400
C861        C  0.01542564  0.30604572  0.84178982     0.85600
O862        O  0.99474137  0.23176901  0.82586552    -0.56300
O863        O  0.99322994  0.23764460  0.88365539    -0.59600
C864        C  0.01290078  0.37896810  0.81676780     0.87000
C865        C  0.01292109  0.40237341  0.83433198    -0.53200
C866        C  0.01323056  0.42461245  0.82107772     0.09900
C867        C  0.01358670  0.42130923  0.79225379     0.20900
C868        C  0.98977694  0.38266124  0.79907101    -0.54000
C869        C  0.99037363  0.40498597  0.78629346     0.10000
C870        C  0.03636399  0.38207296  0.79961574    -0.53500
C871        C  0.03648403  0.40428604  0.78686916     0.10600
H872        H  0.01250781  0.40143247  0.85489699     0.15100
H873        H  0.01395168  0.43936034  0.78151522     0.00900
H874        H  0.97473583  0.36882585  0.79657062     0.15400
H875        H  0.05108518  0.36780646  0.79726049     0.15200
In876      In  0.86850900  0.25731811  0.00209524     1.36900
C877        C  0.89792612  0.25351987  0.96103935     0.78100
O878        O  0.87683349  0.29868665  0.00476915    -0.60400
O879        O  0.83802183  0.28733989  0.00195268    -0.51300
C880        C  0.83177306  0.22206965  0.00238825     0.70800
O881        O  0.84157293  0.23086672  0.02228148    -0.46100
C882        C  0.89821523  0.25140859  0.04260070     0.75500
O883        O  0.88055131  0.26985643  0.96293870    -0.58000
O884        O  0.87992876  0.26685144  0.04203047    -0.48100
O885        O  0.89943073  0.23870625  0.97963714    -0.54400
C886        C  0.85377167  0.30522615  0.00393000     0.85600
O887        O  0.83994855  0.23209996  0.98232531    -0.56300
O888        O  0.90073241  0.23845953  0.02272019    -0.59600
C889        C  0.82527492  0.37705437  0.00732085     0.87000
C890        C  0.84245883  0.40076037  0.00660350    -0.53200
C891        C  0.82877235  0.42278847  0.00733495     0.09900
C892        C  0.79983405  0.41896223  0.00850951     0.20900
C893        C  0.80876363  0.38009279  0.03128315    -0.54000
C894        C  0.79546306  0.40214704  0.03162051     0.10000
C895        C  0.80661164  0.38012782  0.98503801    -0.53500
C896        C  0.79332863  0.40212787  0.98588301     0.10600
H897        H  0.86314944  0.40015020  0.00594087     0.15100
H898        H  0.78868565  0.43681738  0.00902657     0.00900
H899        H  0.80715611  0.36591348  0.04606510     0.15400
H900        H  0.80369260  0.36598360  0.97042690     0.15200
In901      In  0.31619646  0.10536572  0.00249519     1.36900
C902        C  0.30963353  0.07848270  0.96044629     0.78100
O903        O  0.34678827  0.13450459  0.00853408    -0.60400
O904        O  0.35836835  0.09676562  0.00168817    -0.51300
C905        C  0.28148193  0.14285977  0.00127215     0.70800
O906        O  0.29617517  0.13809781  0.98295910    -0.46100
C907        C  0.31040594  0.07390856  0.04161890     0.75500
O908        O  0.32828811  0.09320185  0.96336806    -0.58000
O909        O  0.32003440  0.09553857  0.04413246    -0.48100
O910        O  0.29377579  0.07870553  0.97842180    -0.54400
C911        C  0.36496234  0.11914616  0.00596222     0.85600
O912        O  0.28487146  0.12873304  0.02016751    -0.56300
O913        O  0.30332888  0.06886974  0.01940388    -0.59600
C914        C  0.43645108  0.14965811  0.00886371     0.87000
C915        C  0.46123177  0.13379949  0.00846913    -0.53200
C916        C  0.48278644  0.14833901  0.00876926     0.09900
C917        C  0.47755918  0.17673312  0.00940246     0.20900
C918        C  0.43871003  0.16667712  0.03242615    -0.54000
C919        C  0.46036151  0.18082090  0.03246842     0.10000
C920        C  0.43868449  0.16765565  0.98607638    -0.53500
C921        C  0.46032050  0.18175296  0.98657830     0.10600
H922        H  0.46165489  0.11334488  0.00794541     0.15100
H923        H  0.49511413  0.18849713  0.00960710     0.00900
H924        H  0.42440479  0.16776735  0.04729952     0.15400
H925        H  0.42443956  0.16928022  0.97120272     0.15200
In926      In  0.31742490  0.96022051  0.15220089     1.36900
C927        C  0.31072633  0.99802157  0.11971091     0.78100
O928        O  0.35905252  0.96994958  0.14795278    -0.60400
O929        O  0.34685146  0.95380183  0.18268506    -0.51300
C930        C  0.28312867  0.96318924  0.18981988     0.70800
O931        O  0.28941734  0.98186196  0.17648291    -0.46100
C932        C  0.31160848  0.91859415  0.12420325     0.75500
O933        O  0.30555700  0.97542521  0.11453919    -0.58000
O934        O  0.33255646  0.92466705  0.13422857    -0.48100
O935        O  0.31883102  0.00150200  0.14197277    -0.54400
C936        C  0.36502293  0.96253079  0.16979912     0.85600
O937        O  0.29447959  0.94305920  0.18396689    -0.56300
O938        O  0.29337330  0.93319141  0.12954812    -0.59600
C939        C  0.43608172  0.96346838  0.20209842     0.87000
C940        C  0.45985845  0.96193718  0.18488614    -0.53200
C941        C  0.48208821  0.96070263  0.19833822     0.09900
C942        C  0.47851451  0.96101345  0.22714813     0.20900
C943        C  0.43785225  0.94042492  0.21974744    -0.54000
C944        C  0.46017321  0.93939161  0.23282949     0.10000
C945        C  0.44065757  0.98640899  0.21948085    -0.53500
C946        C  0.46302638  0.98481300  0.23259318     0.10600
H947        H  0.45917380  0.96202741  0.16430233     0.15100
H948        H  0.49665576  0.95992988  0.23803984     0.00900
H949        H  0.42271322  0.92665682  0.22210792     0.15400
H950        H  0.42728884  0.00191644  0.22168965     0.15200
In951      In  0.16438171  0.25418255  0.99908273     1.36900
C952        C  0.13353844  0.24868969  0.03900441     0.78100
O953        O  0.15576796  0.29589564  0.00257592    -0.60400
O954        O  0.19443632  0.28480771  0.99941494    -0.51300
C955        C  0.20226104  0.21962644  0.99928577     0.70800
O956        O  0.19723172  0.23315372  0.98028318    -0.46100
C957        C  0.13576418  0.24706544  0.95773551     0.75500
O958        O  0.15597319  0.25706689  0.04117028    -0.58000
O959        O  0.15108064  0.26525120  0.95989376    -0.48100
O960        O  0.12739059  0.24280630  0.01670258    -0.54400
C961        C  0.17871669  0.30266207  0.00160654     0.85600
O962        O  0.18802559  0.22386390  0.01804736    -0.56300
O963        O  0.13630219  0.23178556  0.97601886    -0.59600
C964        C  0.20838083  0.37427961  0.00464095     0.87000
C965        C  0.19176250  0.39847463  0.00580907    -0.53200
C966        C  0.20603986  0.42013286  0.00651579     0.09900
C967        C  0.23485277  0.41554836  0.00609958     0.20900
C968        C  0.22578946  0.37794632  0.98138644    -0.54000
C969        C  0.23952924  0.39968024  0.98238058     0.10000
C970        C  0.22632782  0.37599753  0.02767777    -0.53500
C971        C  0.24013858  0.39767475  0.02823956     0.10600
H972        H  0.17111244  0.39844374  0.00577351     0.15100
H973        H  0.24640220  0.43311603  0.00670169     0.00900
H974        H  0.22725573  0.36462433  0.96588538     0.15400
H975        H  0.22836171  0.36110236  0.04194571     0.15200
In976      In  0.01710776  0.25925052  0.14775535     1.36900
C977        C  0.97528400  0.25191841  0.12002582     0.78100
O978        O  0.01634882  0.29110925  0.17608468    -0.60400
O979        O  0.01711990  0.30053882  0.13698523    -0.51300
C980        C  0.01780151  0.22717526  0.18715983     0.70800
O981        O  0.99756454  0.23571108  0.17758700    -0.46100
C982        C  0.05683661  0.25102993  0.11710632     0.75500
O983        O  0.97765919  0.27020750  0.13510387    -0.58000
O984        O  0.05827013  0.26521297  0.13625585    -0.48100
O985        O  0.99375061  0.23667309  0.12020303    -0.54400
C986        C  0.01620121  0.30827428  0.15954214     0.85600
O987        O  0.03779496  0.23554520  0.17699354    -0.56300
O988        O  0.03544225  0.24071177  0.11423972    -0.59600
C989        C  0.01358918  0.37977282  0.18855536     0.87000
C990        C  0.01355769  0.40453656  0.17295411    -0.53200
C991        C  0.01410982  0.42569327  0.18791715     0.09900
C992        C  0.01454148  0.42006659  0.21642743     0.20900
C993        C  0.03720573  0.38154648  0.20574765    -0.54000
C994        C  0.03746782  0.40267164  0.22030491     0.10000
C995        C  0.99065577  0.38202949  0.20675541    -0.53500
C996        C  0.99140645  0.40323285  0.22134235     0.10600
H997        H  0.01348309  0.40521634  0.15237316     0.15100
H998        H  0.01503250  0.43718475  0.22859849     0.00900
H999        H  0.05191688  0.36713297  0.20682612     0.15400
H1000       H  0.97582689  0.36785717  0.20852647     0.15200
In1001     In  0.16563867  0.96625717  0.30018213     1.36900
C1002       C  0.13576804  0.92641049  0.29153671     0.78100
O1003       O  0.19315558  0.97476093  0.33175267    -0.60400
O1004       O  0.15773866  0.95772312  0.34124125    -0.51300
C1005       C  0.20466352  0.96664079  0.26702759     0.70800
O1006       O  0.19929881  0.94795501  0.28071161    -0.46100
C1007       C  0.13573548  0.00668793  0.29680119     0.75500
O1008       O  0.13071269  0.94831052  0.28388636    -0.58000
O1009       O  0.15095379  0.00332765  0.31501954    -0.48100
O1010       O  0.15695558  0.92448479  0.30268197    -0.54400
C1011       C  0.17875691  0.96625184  0.34888657     0.85600
O1012       O  0.19029462  0.98533091  0.27053773    -0.56300
O1013       O  0.13671916  0.98992693  0.27986548    -0.59600
C1014       C  0.20798559  0.96474925  0.42061730     0.87000
C1015       C  0.19152282  0.96485553  0.44497212    -0.53200
C1016       C  0.20583890  0.96372405  0.46666893     0.09900
C1017       C  0.23466488  0.96265932  0.46192682     0.20900
C1018       C  0.22657507  0.98695542  0.42365170    -0.54000
C1019       C  0.24048617  0.98563471  0.44538006     0.10000
C1020       C  0.22470322  0.94095767  0.42258767    -0.53500
C1021       C  0.23863444  0.94007280  0.44432178     0.10600
H1022       H  0.17082674  0.96561411  0.44501687     0.15100
H1023       H  0.24628919  0.96175853  0.47955574     0.00900
H1024       H  0.22883375  0.00194447  0.40978967     0.15400
H1025       H  0.22574466  0.92649138  0.40803834     0.15200
In1026     In  0.01628601  0.11236862  0.29869299     1.36900
C1027       C  0.05767722  0.08324480  0.29568675     0.78100
O1028       O  0.01420325  0.10488163  0.34041718    -0.60400
O1029       O  0.01626515  0.14305232  0.32811200    -0.51300
C1030       C  0.01744700  0.15059839  0.26541016     0.70800
O1031       O  0.03731997  0.14156733  0.27534815    -0.46100
C1032       C  0.97579276  0.08259110  0.29201794     0.75500
O1033       O  0.05269212  0.09673582  0.31469382    -0.58000
O1034       O  0.97548344  0.10128024  0.30674383    -0.48100
O1035       O  0.04210626  0.08561204  0.27760882    -0.54400
C1036       C  0.01502318  0.12780933  0.34644540     0.85600
O1037       O  0.99712441  0.14036009  0.27286472    -0.56300
O1038       O  0.99636610  0.07991449  0.27998156    -0.59600
C1039       C  0.01579198  0.15663183  0.41831624     0.87000
C1040       C  0.01489526  0.13941009  0.44195788    -0.53200
C1041       C  0.01547789  0.15270444  0.46419725     0.09900
C1042       C  0.01685295  0.18132775  0.46065992     0.20900
C1043       C  0.99335111  0.17507064  0.42145335    -0.54000
C1044       C  0.99415668  0.18793686  0.44372978     0.10000
C1045       C  0.03988033  0.17286077  0.42158042    -0.53500
C1046       C  0.04017926  0.18578926  0.44385935     0.10600
H1047       H  0.01392698  0.11898111  0.44116485     0.15100
H1048       H  0.01729051  0.19213926  0.47873074     0.00900
H1049       H  0.97866160  0.17807786  0.40723382     0.15400
H1050       H  0.05479117  0.17454826  0.40736635     0.15200
In1051     In  0.01881869  0.81951097  0.30322332     1.36900
C1052       C  0.97783139  0.84916863  0.30042387     0.78100
O1053       O  0.01256077  0.78945877  0.33285439    -0.60400
O1054       O  0.02878966  0.82420330  0.34449929    -0.51300
C1055       C  0.01765574  0.78139044  0.26982314     0.70800
O1056       O  0.99826835  0.78863121  0.28195184    -0.46100
C1057       C  0.05828418  0.84978138  0.29388341     0.75500
O1058       O  0.98603826  0.84024480  0.32098732    -0.58000
O1059       O  0.06073142  0.82911803  0.30551013    -0.48100
O1060       O  0.99011492  0.84221226  0.28109861    -0.54400
C1061       C  0.02099403  0.80269790  0.35083005     0.85600
O1062       O  0.03768106  0.79341482  0.27508562    -0.56300
O1063       O  0.03594054  0.85429129  0.28634551    -0.59600
C1064       C  0.02042284  0.77160924  0.42199895     0.87000
C1065       C  0.02059415  0.78774550  0.44650842    -0.53200
C1066       C  0.01990750  0.77344327  0.46817496     0.09900
C1067       C  0.01915331  0.74501300  0.46322958     0.20900
C1068       C  0.04318111  0.75348106  0.42471941    -0.54000
C1069       C  0.04229840  0.73965210  0.44641276     0.10000
C1070       C  0.99660633  0.75481895  0.42417510    -0.53500
C1071       C  0.99616432  0.74094995  0.44587064     0.10600
H1072       H  0.02124569  0.80819819  0.44666352     0.15100
H1073       H  0.01863808  0.73340555  0.48080298     0.00900
H1074       H  0.05832079  0.75159258  0.41076883     0.15400
H1075       H  0.98183012  0.75367447  0.40977832     0.15200
In1076     In  0.86918807  0.96543370  0.30138064     1.36900
C1077       C  0.89872555  0.00548348  0.29331051     0.78100
O1078       O  0.83879668  0.95893326  0.33068942    -0.60400
O1079       O  0.87495853  0.97244839  0.34289229    -0.51300
C1080       C  0.83082615  0.96345216  0.26812346     0.70800
O1081       O  0.83975564  0.98388368  0.27641531    -0.46100
C1082       C  0.89967928  0.92541916  0.29886745     0.75500
O1083       O  0.87827505  0.00681436  0.30584976    -0.58000
O1084       O  0.88766791  0.93152961  0.31860672    -0.48100
O1085       O  0.90327157  0.98403024  0.28412987    -0.54400
C1086       C  0.85289696  0.96534198  0.34893798     0.85600
O1087       O  0.84129112  0.94405607  0.27715004    -0.56300
O1088       O  0.89538485  0.93934682  0.27994739    -0.59600
C1089       C  0.82317354  0.96231272  0.42048243     0.87000
C1090       C  0.84042644  0.96196395  0.44426720    -0.53200
C1091       C  0.82679114  0.96177450  0.46641580     0.09900
C1092       C  0.79783333  0.96198552  0.46264252     0.20900
C1093       C  0.80549572  0.93930936  0.42331308    -0.54000
C1094       C  0.79226803  0.93937106  0.44555193     0.10000
C1095       C  0.80573105  0.98536262  0.42378353    -0.53500
C1096       C  0.79254550  0.98495695  0.44593639     0.10600
H1097       H  0.86112830  0.96182597  0.44362727     0.15100
H1098       H  0.78677618  0.96190821  0.48066110     0.00900
H1099       H  0.80335864  0.92471781  0.40901581     0.15400
H1100       H  0.80371412  0.00030635  0.40982315     0.15200
In1101     In  0.87217902  0.95810070  0.70748777     1.36900
C1102       C  0.90190689  0.91783513  0.71514242     0.78100
O1103       O  0.84350843  0.95641674  0.67581459    -0.60400
O1104       O  0.88285024  0.95752669  0.66605361    -0.51300
C1105       C  0.83293658  0.95742572  0.74022926     0.70800
O1106       O  0.84452225  0.93785706  0.73322559    -0.46100
C1107       C  0.89839777  0.00086435  0.71322764     0.75500
O1108       O  0.88381469  0.91799709  0.69940638    -0.58000
O1109       O  0.88210510  0.99763913  0.69600174    -0.48100
O1110       O  0.90459776  0.93822845  0.72713790    -0.54400
C1111       C  0.86008399  0.95682648  0.65846098     0.85600
O1112       O  0.84097798  0.97729684  0.72999275    -0.56300
O1113       O  0.90086356  0.98236478  0.72806187    -0.59600
C1114       C  0.83019039  0.95782435  0.58698738     0.87000
C1115       C  0.84560580  0.95871811  0.56193384    -0.53200
C1116       C  0.83027171  0.95921109  0.54087291     0.09900
C1117       C  0.80171692  0.95875604  0.54680667     0.20900
C1118       C  0.81218170  0.98077288  0.58581853    -0.54000
C1119       C  0.79736932  0.98103488  0.56463059     0.10000
C1120       C  0.81264045  0.93471294  0.58448958    -0.53500
C1121       C  0.79776661  0.93545217  0.56336603     0.10600
H1122       H  0.86628919  0.95903464  0.56099314     0.15100
H1123       H  0.78933169  0.95916278  0.52967197     0.00900
H1124       H  0.81109884  0.99521006  0.60039556     0.15400
H1125       H  0.81164752  0.91959987  0.59836022     0.15200
In1126     In  0.01753299  0.80915199  0.71185524     1.36900
C1127       C  0.05824185  0.83847747  0.71780304     0.78100
O1128       O  0.02151791  0.78180705  0.67918655    -0.60400
O1129       O  0.01426266  0.82024253  0.67066004    -0.51300
C1130       C  0.01864645  0.77034578  0.74477538     0.70800
O1131       O  0.03818535  0.78245216  0.73827223    -0.46100
C1132       C  0.97662176  0.83831916  0.71927850     0.75500
O1133       O  0.03940209  0.83903845  0.73265947    -0.58000
O1134       O  0.97618203  0.81920681  0.70505588    -0.48100
O1135       O  0.05676146  0.82199638  0.70062659    -0.54400
C1136       C  0.01806840  0.79834561  0.66232069     0.85600
O1137       O  0.99854331  0.77758061  0.73389601    -0.56300
O1138       O  0.99741667  0.84143486  0.73078584    -0.59600
C1139       C  0.01963552  0.77224583  0.58931553     0.87000
C1140       C  0.01959280  0.78844540  0.56478485    -0.53200
C1141       C  0.02013787  0.77408891  0.54309353     0.09900
C1142       C  0.02062336  0.74568395  0.54802517     0.20900
C1143       C  0.99670517  0.75440009  0.58651245    -0.54000
C1144       C  0.99742770  0.74061156  0.56479737     0.10000
C1145       C  0.04330037  0.75517875  0.58704475    -0.53500
C1146       C  0.04358648  0.74135339  0.56532639     0.10600
H1147       H  0.01911622  0.80890321  0.56463056     0.15100
H1148       H  0.02101909  0.73407228  0.53044852     0.00900
H1149       H  0.98151663  0.75269855  0.60042834     0.15400
H1150       H  0.05807426  0.75379643  0.60142602     0.15200
In1151     In  0.01390367  0.10800681  0.70457903     1.36900
C1152       C  0.97183210  0.08082113  0.71154582     0.78100
O1153       O  0.01614931  0.09881323  0.66280214    -0.60400
O1154       O  0.01355466  0.13727192  0.67362449    -0.51300
C1155       C  0.01391796  0.14679576  0.73725714     0.70800
O1156       O  0.03405956  0.13635430  0.72949584    -0.46100
C1157       C  0.05329014  0.07678884  0.71172992     0.75500
O1158       O  0.97552342  0.09399745  0.69196053    -0.58000
O1159       O  0.05521532  0.09697098  0.69926727    -0.48100
O1160       O  0.98914722  0.08256332  0.72804047    -0.54400
C1161       C  0.01525437  0.12149058  0.65583444     0.85600
O1162       O  0.99384045  0.13768784  0.72795333    -0.56300
O1163       O  0.03159829  0.07323244  0.72127490    -0.59600
C1164       C  0.01654692  0.15165401  0.58437473     0.87000
C1165       C  0.01574190  0.13572977  0.55979340    -0.53200
C1166       C  0.01581755  0.15024584  0.53830488     0.09900
C1167       C  0.01669777  0.17861874  0.54336938     0.20900
C1168       C  0.04028602  0.16855120  0.58169957    -0.54000
C1169       C  0.04007600  0.18265942  0.56012051     0.10000
C1170       C  0.99370631  0.16986409  0.58237794    -0.53500
C1171       C  0.99406630  0.18391660  0.56077990     0.10600
H1172       H  0.01514744  0.11527584  0.55945588     0.15100
H1173       H  0.01675806  0.19037391  0.52589154     0.00900
H1174       H  0.05532731  0.16977802  0.59580533     0.15400
H1175       H  0.97912936  0.17190024  0.59688675     0.15200
In1176     In  0.16082787  0.95923749  0.70763171     1.36900
C1177       C  0.13019269  0.99909596  0.71310163     0.78100
O1178       O  0.15263070  0.96157180  0.66555618    -0.60400
O1179       O  0.19073779  0.95459116  0.67712641    -0.51300
C1180       C  0.19858175  0.96067445  0.74224036     0.70800
O1181       O  0.19154117  0.97982674  0.72997998    -0.46100
C1182       C  0.13231710  0.91814914  0.71434203     0.75500
O1183       O  0.14989543  0.99960748  0.69938957    -0.58000
O1184       O  0.14983659  0.91930198  0.69796085    -0.48100
O1185       O  0.12688610  0.97861269  0.72467207    -0.54400
C1186       C  0.17543803  0.95794060  0.65898598     0.85600
O1187       O  0.18650360  0.94100368  0.73661514    -0.56300
O1188       O  0.12978753  0.93783007  0.72747547    -0.59600
C1189       C  0.20639810  0.95875470  0.58731458     0.87000
C1190       C  0.19003946  0.96025780  0.56286059    -0.53200
C1191       C  0.20452617  0.96053599  0.54118898     0.09900
C1192       C  0.23323391  0.95927478  0.54596210     0.20900
C1193       C  0.22329692  0.93520709  0.58389417    -0.54000
C1194       C  0.23728861  0.93577788  0.56214544     0.10000
C1195       C  0.22497360  0.98121897  0.58555097    -0.53500
C1196       C  0.23893731  0.98121924  0.56374209     0.10600
H1197       H  0.16934975  0.96109304  0.56274687     0.15100
H1198       H  0.24492849  0.95946822  0.52833601     0.00900
H1199       H  0.22453651  0.91995316  0.59759049     0.15400
H1200       H  0.22718407  0.99537576  0.60026323     0.15200
C1201       C  0.18355530  0.95796819  0.63280690    -0.12800
C1202       C  0.19220711  0.95834411  0.61150571    -0.14300
C1203       C  0.09708667  0.06137841  0.70063529    -0.12800
C1204       C  0.07419456  0.05824389  0.71411785     0.09300
C1205       C  0.07066049  0.03627614  0.72855574    -0.12800
C1206       C  0.08931122  0.01745403  0.72889271    -0.12800
C1207       C  0.11183867  0.02018251  0.71473430     0.09300
C1208       C  0.11574273  0.04247440  0.70090099    -0.12800
H1209       H  0.10024472  0.07810195  0.68927988     0.13300
H1210       H  0.05318085  0.03334281  0.73910141     0.13300
H1211       H  0.08576596  0.00043906  0.73968430     0.13300
H1212       H  0.13291391  0.04501709  0.68977710     0.13300
C1213       C  0.01640782  0.13740108  0.60831606    -0.12800
C1214       C  0.01600997  0.12894282  0.62959223    -0.14300
C1215       C  0.07904043  0.87602249  0.73757217    -0.12800
C1216       C  0.07945659  0.85667840  0.71938096     0.09300
C1217       C  0.09891037  0.85644446  0.70106735    -0.12800
C1218       C  0.11679858  0.87593105  0.70008073    -0.12800
C1219       C  0.11551103  0.89602245  0.71736018     0.09300
C1220       C  0.09688760  0.89555855  0.73653502    -0.12800
H1221       H  0.06429249  0.87662473  0.75194491     0.13300
H1222       H  0.09969029  0.84173036  0.68683728     0.13300
H1223       H  0.13101339  0.87577546  0.68518373     0.13300
H1224       H  0.09558084  0.91073354  0.75022615     0.13300
C1225       C  0.01901613  0.78578286  0.61370581    -0.12800
C1226       C  0.01852335  0.79265869  0.63557887    -0.14300
C1227       C  0.91613380  0.87413915  0.70371413    -0.12800
C1228       C  0.91905108  0.89591896  0.71861444     0.09300
C1229       C  0.93949685  0.89720927  0.73575633    -0.12800
C1230       C  0.95749045  0.87776284  0.73693708    -0.12800
C1231       C  0.95536511  0.85660662  0.72104660     0.09300
C1232       C  0.93413315  0.85464266  0.70492486    -0.12800
H1233       H  0.90045027  0.87257189  0.69044030     0.13300
H1234       H  0.94211577  0.91367510  0.74760560     0.13300
H1235       H  0.97363151  0.87976292  0.74959094     0.13300
H1236       H  0.93202634  0.83856174  0.69245643     0.13300
C1237       C  0.93016249  0.02801083  0.73586108    -0.12800
C1238       C  0.91417298  0.02385599  0.71491889     0.09300
C1239       C  0.91502334  0.04073890  0.69441129    -0.12800
C1240       C  0.93283640  0.06029488  0.69399775    -0.12800
C1241       C  0.95001505  0.06342344  0.71416113     0.09300
C1242       C  0.94788774  0.04771232  0.73552810    -0.12800
H1243       H  0.92967463  0.01542877  0.75203240     0.13300
H1244       H  0.90283441  0.03803653  0.67805901     0.13300
H1245       H  0.93399065  0.07217667  0.67733214     0.13300
H1246       H  0.96077998  0.04983736  0.75142584     0.13300
C1247       C  0.85335312  0.95684746  0.63200001    -0.12800
C1248       C  0.84508725  0.95725038  0.61061648    -0.14300
C1249       C  0.83862849  0.96034063  0.51470157    -0.12800
C1250       C  0.83739539  0.96115559  0.49178807    -0.14300
C1251       C  0.84463214  0.96411569  0.37478370    -0.12800
C1252       C  0.83649690  0.96288757  0.39609869    -0.14300
C1253       C  0.02003719  0.78285892  0.49407734    -0.12800
C1254       C  0.02007494  0.78321920  0.51709536    -0.14300
C1255       C  0.95037305  0.87966683  0.27663794    -0.12800
C1256       C  0.95629085  0.86703111  0.29930435     0.09300
C1257       C  0.94244373  0.87273016  0.32136093    -0.12800
C1258       C  0.92342808  0.89115204  0.32092425    -0.12800
C1259       C  0.91801638  0.90434319  0.29846835     0.09300
C1260       C  0.93141870  0.89824604  0.27623592    -0.12800
H1261       H  0.96087542  0.87568752  0.25940007     0.13300
H1262       H  0.94664652  0.86329184  0.33908609     0.13300
H1263       H  0.91341739  0.89553271  0.33836161     0.13300
H1264       H  0.92764840  0.90821049  0.25870517     0.13300
C1265       C  0.02135718  0.79405689  0.37667694    -0.12800
C1266       C  0.02112601  0.78555835  0.39792234    -0.14300
C1267       C  0.01514187  0.14120370  0.51241457    -0.12800
C1268       C  0.01500812  0.14208298  0.48948873    -0.14300
C1269       C  0.95765614  0.04232474  0.27579228    -0.12800
C1270       C  0.95448148  0.06452319  0.28993131     0.09300
C1271       C  0.93171029  0.06815999  0.30354966    -0.12800
C1272       C  0.91290103  0.04942455  0.30379406    -0.12800
C1273       C  0.91667183  0.02674027  0.29053697     0.09300
C1274       C  0.93898693  0.02361397  0.27614314    -0.12800
H1275       H  0.97502040  0.03898762  0.26516941     0.13300
H1276       H  0.92878929  0.08512087  0.31461506     0.13300
H1277       H  0.89587181  0.05229125  0.31507631     0.13300
H1278       H  0.94240925  0.00632330  0.26575083     0.13300
C1279       C  0.01489371  0.13587810  0.37236271    -0.12800
C1280       C  0.01518792  0.14371981  0.39378970    -0.14300
C1281       C  0.19528695  0.96208954  0.51532094    -0.12800
C1282       C  0.19597459  0.96311743  0.49237661    -0.14300
C1283       C  0.10397077  0.86279244  0.29961622    -0.12800
C1284       C  0.07937307  0.86790465  0.29032085     0.09300
C1285       C  0.07443409  0.89146356  0.27921450    -0.12800
C1286       C  0.09328112  0.90998782  0.27851458    -0.12800
C1287       C  0.11749019  0.90538991  0.28893853     0.09300
C1288       C  0.12290624  0.88141019  0.29892493    -0.12800
H1289       H  0.10829660  0.84474580  0.30820583     0.13300
H1290       H  0.05566788  0.89594524  0.27187602     0.13300
H1291       H  0.08854514  0.92828146  0.27070233     0.13300
H1292       H  0.14143724  0.87736881  0.30705309     0.13300
C1293       C  0.11274566  0.04251367  0.31748877    -0.12800
C1294       C  0.11747834  0.02786249  0.29581131     0.09300
C1295       C  0.10337214  0.03252387  0.27365918    -0.12800
C1296       C  0.08446745  0.05113449  0.27334096    -0.12800
C1297       C  0.07926883  0.06534587  0.29519881     0.09300
C1298       C  0.09377532  0.06106585  0.31719924    -0.12800
H1299       H  0.12317885  0.03912648  0.33489184     0.13300
H1300       H  0.10663534  0.02146003  0.25670935     0.13300
H1301       H  0.07352298  0.05401245  0.25615437     0.13300
H1302       H  0.09000886  0.07160073  0.33439311     0.13300
C1303       C  0.18589707  0.96617467  0.37516075    -0.12800
C1304       C  0.19397398  0.96579106  0.39656627    -0.14300
C1305       C  0.99486055  0.19856435  0.21712916    -0.12800
C1306       C  0.01793447  0.20853194  0.20808373     0.09300
C1307       C  0.04097860  0.19985829  0.21860811    -0.12800
C1308       C  0.04089932  0.18132856  0.23758345    -0.12800
C1309       C  0.01777994  0.17108807  0.24630370     0.09300
C1310       C  0.99478577  0.18004640  0.23599497    -0.12800
H1311       H  0.97681550  0.20481897  0.20934385     0.13300
H1312       H  0.05905334  0.20719021  0.21198115     0.13300
H1313       H  0.05892181  0.17476834  0.24517466     0.13300
H1314       H  0.97667597  0.17250676  0.24230629     0.13300
C1315       C  0.01360066  0.35601284  0.17404848    -0.12800
C1316       C  0.01473595  0.33465001  0.16606506    -0.14300
C1317       C  0.12078927  0.25735980  0.08412084    -0.12800
C1318       C  0.11539003  0.24660803  0.06036971     0.09300
C1319       C  0.09154566  0.23521661  0.05648166    -0.12800
C1320       C  0.07302446  0.23559640  0.07548900    -0.12800
C1321       C  0.07783046  0.24763416  0.09870999     0.09300
C1322       C  0.10208872  0.25796873  0.10312863    -0.12800
H1323       H  0.13907172  0.26616043  0.08764213     0.13300
H1324       H  0.08690421  0.22662908  0.03842720     0.13300
H1325       H  0.05453779  0.22737697  0.07158055     0.13300
H1326       H  0.10632162  0.26719574  0.12095583     0.13300
C1327       C  0.18642215  0.32875267  0.00284774    -0.12800
C1328       C  0.19455741  0.35008662  0.00375409    -0.14300
C1329       C  0.25003773  0.98693864  0.21470085    -0.12800
C1330       C  0.26389314  0.96463308  0.21035490     0.09300
C1331       C  0.25879845  0.94342668  0.22546036    -0.12800
C1332       C  0.23992585  0.94430840  0.24419596    -0.12800
C1333       C  0.22563481  0.96637820  0.24817188     0.09300
C1334       C  0.23103917  0.98778564  0.23340079    -0.12800
H1335       H  0.25359948  0.00359626  0.20337893     0.13300
H1336       H  0.26923915  0.92602328  0.22262043     0.13300
H1337       H  0.23623227  0.92753744  0.25531552     0.13300
H1338       H  0.22036416  0.00507931  0.23608232     0.13300
C1339       C  0.41166346  0.96441307  0.18855210    -0.12800
C1340       C  0.39061944  0.96389933  0.17934622    -0.14300
C1341       C  0.25920811  0.17923536  0.97977403    -0.12800
C1342       C  0.26170699  0.16297755  0.00071413     0.09300
C1343       C  0.24472574  0.16576682  0.02115756    -0.12800
C1344       C  0.22559994  0.18421557  0.02065447    -0.12800
C1345       C  0.22291270  0.20035926  0.99968747     0.09300
C1346       C  0.23999407  0.19773144  0.97925762    -0.12800
H1347       H  0.27203850  0.17758338  0.96374403     0.13300
H1348       H  0.24608788  0.15351973  0.03752857     0.13300
H1349       H  0.21273801  0.18571117  0.03667793     0.13300
H1350       H  0.23847297  0.20994267  0.96287428     0.13300
C1351       C  0.29927313  0.03108270  0.05743522    -0.12800
C1352       C  0.30824127  0.05549098  0.06251002     0.09300
C1353       C  0.31630923  0.06147564  0.08719265    -0.12800
C1354       C  0.31628561  0.04303241  0.10621385    -0.12800
C1355       C  0.30828186  0.01835444  0.10076894     0.09300
C1356       C  0.29932053  0.01270766  0.07634403    -0.12800
H1357       H  0.29287034  0.02594174  0.03859548     0.13300
H1358       H  0.32321265  0.08018553  0.09160834     0.13300
H1359       H  0.32322185  0.04787237  0.12494070     0.13300
H1360       H  0.29296349  0.99387581  0.07163377     0.13300
C1361       C  0.39121596  0.12675755  0.00750134    -0.12800
C1362       C  0.41251685  0.13530992  0.00839375    -0.14300
C1363       C  0.91485462  0.26706899  0.08407767    -0.12800
C1364       C  0.91590050  0.24941120  0.06426492     0.09300
C1365       C  0.93518506  0.23100856  0.06439313    -0.12800
C1366       C  0.95377786  0.23097361  0.08338708    -0.12800
C1367       C  0.95350460  0.24945885  0.10246220     0.09300
C1368       C  0.93354394  0.26713801  0.10297389    -0.12800
H1369       H  0.90018189  0.28145512  0.08442298     0.13300
H1370       H  0.93637022  0.21713540  0.04937337     0.13300
H1371       H  0.96897202  0.21714058  0.08252345     0.13300
H1372       H  0.93288810  0.28159854  0.11746527     0.13300
C1373       C  0.83845332  0.35263260  0.00644529    -0.12800
C1374       C  0.84609404  0.33119594  0.00529247    -0.14300
C1375       C  0.99106945  0.19407760  0.78630712    -0.12800
C1376       C  0.01399381  0.20580192  0.79346453     0.09300
C1377       C  0.03673793  0.19851212  0.78137927    -0.12800
C1378       C  0.03666025  0.17956777  0.76289448    -0.12800
C1379       C  0.01381383  0.16761192  0.75598507     0.09300
C1380       C  0.99096974  0.17522550  0.76769382    -0.12800
H1381       H  0.97325133  0.19923057  0.79535347     0.13300
H1382       H  0.05469097  0.20720617  0.78648907     0.13300
H1383       H  0.05453227  0.17413762  0.75413149     0.13300
H1384       H  0.97308994  0.16626886  0.76281125     0.13300
C1385       C  0.93523580  0.27140506  0.90225183    -0.12800
C1386       C  0.95365513  0.25213007  0.90147618     0.09300
C1387       C  0.95248238  0.23258189  0.91935355    -0.12800
C1388       C  0.93376202  0.23266585  0.93816256    -0.12800
C1389       C  0.91581994  0.25229345  0.93947221     0.09300
C1390       C  0.91642782  0.27147197  0.92110702    -0.12800
H1391       H  0.93580082  0.28677014  0.88874397     0.13300
H1392       H  0.96645520  0.21751075  0.91920452     0.13300
H1393       H  0.93372277  0.21765912  0.95207454     0.13300
H1394       H  0.90288206  0.28689671  0.92178370     0.13300
C1395       C  0.07704180  0.22918801  0.92020226    -0.12800
C1396       C  0.07887295  0.24534316  0.89915710     0.09300
C1397       C  0.10082156  0.26023867  0.89630924    -0.12800
C1398       C  0.11992567  0.26002072  0.91484749    -0.12800
C1399       C  0.11755372  0.24471101  0.93644340     0.09300
C1400       C  0.09623816  0.22882245  0.93863028    -0.12800
H1401       H  0.06031494  0.21754126  0.92293151     0.13300
H1402       H  0.10275939  0.27283203  0.88024692     0.13300
H1403       H  0.13617710  0.27240564  0.91267874     0.13300
H1404       H  0.09382905  0.21694249  0.95517009     0.13300
C1405       C  0.01412672  0.33248355  0.83592637    -0.12800
C1406       C  0.01299977  0.35424365  0.82930886    -0.14300
C1407       C  0.24410121  0.93888046  0.79359269    -0.12800
C1408       C  0.25834679  0.96073460  0.79851395     0.09300
C1409       C  0.25277297  0.98279813  0.78476575    -0.12800
C1410       C  0.23333587  0.98291702  0.76644943    -0.12800
C1411       C  0.21914566  0.96097151  0.76155913     0.09300
C1412       C  0.22474793  0.93900032  0.77536242    -0.12800
H1413       H  0.24780675  0.92165147  0.80397920     0.13300
H1414       H  0.26337027  0.99996480  0.78823174     0.13300
H1415       H  0.22942016  0.00013530  0.75612123     0.13300
H1416       H  0.21409009  0.92182662  0.77211764     0.13300
C1417       C  0.32584062  0.04102871  0.90159240    -0.12800
C1418       C  0.30586533  0.02340001  0.90114132     0.09300
C1419       C  0.28597606  0.02559928  0.91881038    -0.12800
C1420       C  0.28661061  0.04438399  0.93734589    -0.12800
C1421       C  0.30720717  0.06124001  0.93861906     0.09300
C1422       C  0.32654635  0.05976349  0.92023844    -0.12800
H1423       H  0.34148293  0.03966654  0.88823141     0.13300
H1424       H  0.27035163  0.01226223  0.91884570     0.13300
H1425       H  0.27145404  0.04509102  0.95128719     0.13300
H1426       H  0.34269005  0.07246066  0.92085249     0.13300
C1427       C  0.38782839  0.96008043  0.83708092    -0.12800
C1428       C  0.40947695  0.96086216  0.82950763    -0.14300
C1429       C  0.31971703  0.85826272  0.92185988    -0.12800
C1430       C  0.30275523  0.86038222  0.94245382     0.09300
C1431       C  0.28631803  0.88125101  0.94358748    -0.12800
C1432       C  0.28734386  0.90004236  0.92506726    -0.12800
C1433       C  0.30483946  0.89844671  0.90495360     0.09300
C1434       C  0.32075223  0.87714952  0.90324993    -0.12800
H1435       H  0.33271549  0.84242539  0.92056634     0.13300
H1436       H  0.27312381  0.88345509  0.95924720     0.13300
H1437       H  0.27482891  0.91620276  0.92688080     0.13300
H1438       H  0.33444159  0.87543335  0.88795612     0.13300
C1439       C  0.28539170  0.87552036  0.07314866    -0.12800
C1440       C  0.30649916  0.85994914  0.06815411     0.09300
C1441       C  0.32846756  0.86244152  0.08321079    -0.12800
C1442       C  0.32976853  0.88089328  0.10209797    -0.12800
C1443       C  0.30902673  0.89708673  0.10650436     0.09300
C1444       C  0.28660605  0.89384848  0.09224517    -0.12800
H1445       H  0.26821473  0.87397780  0.06186709     0.13300
H1446       H  0.34505413  0.85071478  0.07977912     0.13300
H1447       H  0.34728247  0.88295393  0.11276633     0.13300
H1448       H  0.27033430  0.90611960  0.09519813     0.13300
C1449       C  0.38424119  0.79141604  0.00401827    -0.12800
C1450       C  0.40600133  0.78402145  0.00402185    -0.14300
C1451       C  0.53041691  0.95957734  0.18682577    -0.12800
C1452       C  0.50741929  0.95989183  0.18765031    -0.14300
C1453       C  0.78106094  0.98366158  0.22032131    -0.12800
C1454       C  0.77292918  0.96038459  0.21060071     0.09300
C1455       C  0.78318511  0.93805243  0.22067262    -0.12800
C1456       C  0.80166525  0.93902013  0.23975996    -0.12800
C1457       C  0.81021967  0.96233505  0.24907436     0.09300
C1458       C  0.79954182  0.98462893  0.23937947    -0.12800
H1459       H  0.77340835  0.00116023  0.21292912     0.13300
H1460       H  0.77718771  0.91985660  0.21355681     0.13300
H1461       H  0.80955091  0.92153785  0.24694071     0.13300
H1462       H  0.80575273  0.00284226  0.24625891     0.13300
C1463       C  0.64720404  0.95620332  0.17306033    -0.12800
C1464       C  0.62615131  0.95651542  0.18215196    -0.14300
C1465       C  0.53187991  0.13916183  0.00822996    -0.12800
C1466       C  0.50880312  0.13913509  0.00838837    -0.14300
C1467       C  0.79004681  0.16823607  0.02521897    -0.12800
C1468       C  0.77727109  0.16125067  0.00287030     0.09300
C1469       C  0.78264758  0.17436831  0.98034127    -0.12800
C1470       C  0.80024590  0.19421086  0.98019816    -0.12800
C1471       C  0.81280035  0.20138176  0.00259406     0.09300
C1472       C  0.80760943  0.18810829  0.02508517    -0.12800
H1473       H  0.78644058  0.15835276  0.04282666     0.13300
H1474       H  0.77311170  0.16939221  0.96282725     0.13300
H1475       H  0.80396599  0.20400862  0.96256749     0.13300
H1476       H  0.81723705  0.19300389  0.04257272     0.13300
C1477       C  0.70955685  0.05756178  0.08494044    -0.12800
C1478       C  0.72954473  0.05838502  0.06720658     0.09300
C1479       C  0.74952407  0.04085673  0.06907708    -0.12800
C1480       C  0.74899931  0.02211825  0.08763350    -0.12800
C1481       C  0.72843256  0.02049449  0.10460042     0.09300
C1482       C  0.70897814  0.03870936  0.10348426    -0.12800
H1483       H  0.69385891  0.07080952  0.08381306     0.13300
H1484       H  0.76517472  0.04112543  0.05566738     0.13300
H1485       H  0.76429046  0.00837254  0.08814357     0.13300
H1486       H  0.69289101  0.03785971  0.11635226     0.13300
C1487       C  0.64943604  0.12814114  0.00650791    -0.12800
C1488       C  0.62823385  0.13698362  0.00762905    -0.14300
C1489       C  0.52575067  0.78448931  0.00445068    -0.12800
C1490       C  0.50266472  0.78489554  0.00435103    -0.14300
C1491       C  0.71802422  0.85509995  0.08944306    -0.12800
C1492       C  0.73190705  0.85843877  0.06690445     0.09300
C1493       C  0.74747501  0.87977217  0.06424271    -0.12800
C1494       C  0.74784372  0.89829276  0.08301402    -0.12800
C1495       C  0.73251478  0.89588487  0.10470644     0.09300
C1496       C  0.71825995  0.87375281  0.10819721    -0.12800
H1497       H  0.70598985  0.83872272  0.09200378     0.13300
H1498       H  0.75857719  0.88266263  0.04715613     0.13300
H1499       H  0.75917616  0.91506764  0.07995238     0.13300
H1500       H  0.70642146  0.87137375  0.12486331     0.13300
C1501       C  0.64378459  0.79328733  0.00690229    -0.12800
C1502       C  0.62212888  0.78558577  0.00690186    -0.14300
C1503       C  0.50572115  0.95925138  0.82894715    -0.12800
C1504       C  0.52874951  0.95815453  0.82887779    -0.14300
C1505       C  0.78541726  0.93408062  0.78896165    -0.12800
C1506       C  0.77418141  0.95668804  0.79726236     0.09300
C1507       C  0.78187427  0.97949917  0.78611829    -0.12800
C1508       C  0.80067021  0.97971334  0.76724968    -0.12800
C1509       C  0.81214931  0.95712676  0.75921115     0.09300
C1510       C  0.80422049  0.93429839  0.77014185    -0.12800
H1511       H  0.77988885  0.91622095  0.79723784     0.13300
H1512       H  0.77355621  0.99720520  0.79217372     0.13300
H1513       H  0.80646030  0.99758605  0.75918942     0.13300
H1514       H  0.81276784  0.91661071  0.76435372     0.13300
C1515       C  0.70663727  0.87712520  0.90532042    -0.12800
C1516       C  0.72774217  0.89316096  0.90266538     0.09300
C1517       C  0.74883666  0.89002344  0.91874929    -0.12800
C1518       C  0.74834871  0.87188472  0.93794526    -0.12800
C1519       C  0.72673038  0.85667250  0.94138263     0.09300
C1520       C  0.70611385  0.85905415  0.92455890    -0.12800
H1521       H  0.69007447  0.87926440  0.89322790     0.13300
H1522       H  0.76535454  0.90213189  0.91701617     0.13300
H1523       H  0.76453836  0.87033727  0.95061906     0.13300
H1524       H  0.68919665  0.84758745  0.92683706     0.13300
C1525       C  0.71189219  0.03621189  0.90418320    -0.12800
C1526       C  0.72892126  0.01579402  0.90560817     0.09300
C1527       C  0.74615183  0.01449362  0.92594900    -0.12800
C1528       C  0.74607019  0.03305190  0.94475202    -0.12800
C1529       C  0.72874428  0.05324762  0.94357577     0.09300
C1530       C  0.71179544  0.05477370  0.92301287    -0.12800
H1531       H  0.69826018  0.03754785  0.88880692     0.13300
H1532       H  0.75936105  0.99885661  0.92760511     0.13300
H1533       H  0.75925614  0.03133833  0.96046719     0.13300
H1534       H  0.69814455  0.07005939  0.92172984     0.13300
C1535       C  0.64669937  0.95474002  0.83603498    -0.12800
C1536       C  0.62499385  0.95468056  0.82858487    -0.14300
C1537       C  0.01682423  0.47445238  0.17993331    -0.12800
C1538       C  0.01532000  0.45164486  0.17913870    -0.14300
C1539       C  0.99429685  0.72670985  0.22952243    -0.12800
C1540       C  0.01589819  0.72136728  0.21464622     0.09300
C1541       C  0.03798736  0.73595575  0.21805221    -0.12800
C1542       C  0.03852929  0.75538998  0.23599568    -0.12800
C1543       C  0.01699006  0.76069287  0.25093950     0.09300
C1544       C  0.99483745  0.74618520  0.24749192    -0.12800
H1545       H  0.97697310  0.71586144  0.22723901     0.13300
H1546       H  0.05484683  0.73245488  0.20670178     0.13300
H1547       H  0.05580117  0.76636746  0.23808311     0.13300
H1548       H  0.97792779  0.74987464  0.25871054     0.13300
C1549       C  0.01906393  0.59198212  0.17789966    -0.12800
C1550       C  0.01978946  0.57017033  0.18454348    -0.14300
C1551       C  0.19651895  0.46867619  0.00697364    -0.12800
C1552       C  0.19640570  0.44581658  0.00679131    -0.14300
C1553       C  0.22988872  0.72579888  0.03295901    -0.12800
C1554       C  0.22238286  0.71322157  0.01072351     0.09300
C1555       C  0.23344640  0.72037335  0.98753206    -0.12800
C1556       C  0.25118823  0.74004119  0.98646308    -0.12800
C1557       C  0.25834697  0.75296327  0.00859215     0.09300
C1558       C  0.24772881  0.74544291  0.03189613    -0.12800
H1559       H  0.22170518  0.72071565  0.05107536     0.13300
H1560       H  0.22805998  0.71101551  0.97006519     0.13300
H1561       H  0.25912186  0.74529752  0.96827118     0.13300
H1562       H  0.25294453  0.75501145  0.04930831     0.13300
C1563       C  0.08998206  0.68449896  0.06549097    -0.12800
C1564       C  0.11293075  0.67158991  0.07023619     0.09300
C1565       C  0.11691057  0.66084925  0.09424359    -0.12800
C1566       C  0.09784620  0.66207168  0.11279249    -0.12800
C1567       C  0.07450025  0.67411730  0.10769347     0.09300
C1568       C  0.07096929  0.68579435  0.08405405    -0.12800
H1569       H  0.08644831  0.69306532  0.04717250     0.13300
H1570       H  0.13440703  0.65079767  0.09840200     0.13300
H1571       H  0.10108170  0.65290206  0.13087358     0.13300
H1572       H  0.05319331  0.69524910  0.07961609     0.13300
C1573       C  0.18596303  0.58537068  0.01320352    -0.12800
C1574       C  0.19428303  0.56411037  0.01229002    -0.14300
C1575       C  0.01169997  0.47257504  0.83229418    -0.12800
C1576       C  0.01253120  0.44977613  0.83173175    -0.14300
C1577       C  0.04102897  0.72809416  0.79844107    -0.12800
C1578       C  0.01921413  0.71347114  0.80317249     0.09300
C1579       C  0.99763215  0.71683772  0.78774083    -0.12800
C1580       C  0.99762824  0.73491166  0.76836820    -0.12800
C1581       C  0.01921200  0.74997810  0.76403578     0.09300
C1582       C  0.04102332  0.74616871  0.77907629    -0.12800
H1583       H  0.05791341  0.72594942  0.81007265     0.13300
H1584       H  0.98062037  0.70569479  0.79085019     0.13300
H1585       H  0.98061111  0.73733773  0.75699374     0.13300
H1586       H  0.05790773  0.75756843  0.77624940     0.13300
C1587       C  0.09962400  0.64951355  0.91025201    -0.12800
C1588       C  0.08181282  0.66928620  0.90931400     0.09300
C1589       C  0.08412918  0.68942686  0.92644146    -0.12800
C1590       C  0.10300144  0.68905819  0.94515130    -0.12800
C1591       C  0.11988107  0.66854801  0.94700670     0.09300
C1592       C  0.11852870  0.64917141  0.92892482    -0.12800
H1593       H  0.09835319  0.63384942  0.89716503     0.13300
H1594       H  0.07064572  0.70492939  0.92610869     0.13300
H1595       H  0.10364629  0.70425505  0.95883528     0.13300
H1596       H  0.13141066  0.63320546  0.92985647     0.13300
C1597       C  0.01204253  0.58893183  0.84532267    -0.12800
C1598       C  0.01137863  0.56776636  0.83695078    -0.14300
C1599       C  0.83926430  0.44809586  0.00805929    -0.12800
C1600       C  0.84007946  0.47090314  0.00925830    -0.14300
C1601       C  0.80051027  0.72563200  0.02952960    -0.12800
C1602       C  0.81112430  0.71606046  0.00705028     0.09300
C1603       C  0.80254958  0.72563706  0.98367322    -0.12800
C1604       C  0.78362324  0.74434304  0.98286366    -0.12800
C1605       C  0.77296297  0.75379720  0.00541910     0.09300
C1606       C  0.78165420  0.74426525  0.02872261    -0.12800
H1607       H  0.80686238  0.71877453  0.04781848     0.13300
H1608       H  0.81053664  0.71874389  0.96604405     0.13300
H1609       H  0.77742218  0.75148338  0.96462751     0.13300
H1610       H  0.77394219  0.75130857  0.04641733     0.13300
C1611       C  0.91525829  0.66809718  0.92759276    -0.12800
C1612       C  0.92073633  0.67680567  0.95214344     0.09300
C1613       C  0.94458013  0.68784763  0.95695613    -0.12800
C1614       C  0.96319095  0.68865359  0.93797532    -0.12800
C1615       C  0.95821765  0.67848988  0.91387348     0.09300
C1616       C  0.93383015  0.66897266  0.90860271    -0.12800
H1617       H  0.89697048  0.65963722  0.92333635     0.13300
H1618       H  0.94920159  0.69494620  0.97566105     0.13300
H1619       H  0.98180872  0.69625163  0.94247190     0.13300
H1620       H  0.92951101  0.66102025  0.89018096     0.13300
C1621       C  0.92362662  0.69308803  0.08275253    -0.12800
C1622       C  0.91015417  0.67078817  0.07773655     0.09300
C1623       C  0.91399269  0.64974424  0.09346376    -0.12800
C1624       C  0.93248409  0.65036818  0.11254795    -0.12800
C1625       C  0.94748189  0.67200746  0.11610574     0.09300
C1626       C  0.94219159  0.69367407  0.10174893    -0.12800
H1627       H  0.92082599  0.70966250  0.07108265     0.13300
H1628       H  0.90370343  0.63236133  0.09013589     0.13300
H1629       H  0.93606840  0.63344382  0.12347320     0.13300
H1630       H  0.95329935  0.71067981  0.10431380     0.13300
C1631       C  0.84259046  0.56672445  0.01001868    -0.12800
C1632       C  0.85010276  0.58826286  0.00924130    -0.14300
C1633       C  0.06567667  0.42213291  0.75141363    -0.12800
C1634       C  0.05499627  0.41108627  0.76815402    -0.14300
C1635       C  0.06384468  0.50386920  0.75402950    -0.12800
C1636       C  0.05272047  0.51416728  0.77115298    -0.14300
C1637       C  0.12077709  0.46486812  0.68895697    -0.12800
C1638       C  0.14223215  0.46306066  0.68081788    -0.14300
C1639       C  0.06073523  0.72091343  0.45348211    -0.12800
C1640       C  0.07187398  0.70464009  0.46483354    -0.14300
C1641       C  0.06255562  0.72284561  0.55895511    -0.12800
C1642       C  0.07349386  0.70607828  0.54810346    -0.14300
C1643       C  0.19862538  0.54858337  0.58013463    -0.12800
C1644       C  0.22142769  0.55433699  0.56742302     0.09300
C1645       C  0.24401446  0.54201900  0.57469809    -0.12800
C1646       C  0.24366987  0.52377276  0.59389089    -0.12800
C1647       C  0.22070120  0.51750977  0.60606795     0.09300
C1648       C  0.19827085  0.53034602  0.59923882    -0.12800
H1649       H  0.18093042  0.55774538  0.57490798     0.13300
H1650       H  0.26186552  0.54612766  0.56519919     0.13300
H1651       H  0.26120850  0.51414442  0.59875688     0.13300
H1652       H  0.18026475  0.52587841  0.60827828     0.13300
C1653       C  0.12636814  0.64014414  0.50633288    -0.12800
C1654       C  0.14722857  0.63058836  0.50578116    -0.14300
C1655       C  0.27719990  0.01320730  0.46372080    -0.12800
C1656       C  0.26010496  0.00314680  0.45242438    -0.14300
C1657       C  0.25865559  0.99898320  0.55746633    -0.12800
C1658       C  0.27590130  0.00940858  0.54664601    -0.14300
C1659       C  0.35054198  0.08577082  0.50929479    -0.12800
C1660       C  0.34224991  0.06453234  0.50859584    -0.14300
C1661       C  0.07039646  0.22060757  0.46165239    -0.12800
C1662       C  0.05912749  0.20407370  0.45081184    -0.14300
C1663       C  0.05857486  0.20162523  0.55375566    -0.12800
C1664       C  0.06954357  0.21871378  0.54345354    -0.14300
C1665       C  0.23913500  0.38505984  0.56212951    -0.12800
C1666       C  0.22886028  0.36095550  0.56607096     0.09300
C1667       C  0.21761321  0.35535968  0.58962066    -0.12800
C1668       C  0.21610180  0.37379878  0.60862361    -0.12800
C1669       C  0.22596550  0.39805890  0.60441312     0.09300
C1670       C  0.23774766  0.40337267  0.58109276    -0.12800
H1671       H  0.24778275  0.38997472  0.54414229     0.13300
H1672       H  0.20947160  0.33693667  0.59312927     0.13300
H1673       H  0.20690890  0.36921185  0.62642722     0.13300
H1674       H  0.24538492  0.42194201  0.57724010     0.13300
C1675       C  0.28454747  0.24077678  0.48449588    -0.12800
C1676       C  0.27663481  0.25240664  0.50712360     0.09300
C1677       C  0.28668796  0.24380105  0.53025333    -0.12800
C1678       C  0.30463714  0.22425115  0.53071915    -0.12800
C1679       C  0.31289070  0.21292151  0.50806632     0.09300
C1680       C  0.30248737  0.22121339  0.48496321    -0.12800
H1681       H  0.27708070  0.24699546  0.46638767     0.13300
H1682       H  0.28082213  0.25231815  0.54798806     0.13300
H1683       H  0.31230316  0.21820947  0.54880586     0.13300
H1684       H  0.30854591  0.21287256  0.46720625     0.13300
C1685       C  0.12768199  0.28177198  0.50471007    -0.12800
C1686       C  0.14927410  0.28958748  0.50530488    -0.14300
C1687       C  0.05616750  0.40786680  0.23948239    -0.12800
C1688       C  0.06766162  0.41693808  0.25695438    -0.14300
C1689       C  0.06061430  0.50996594  0.24455789    -0.12800
C1690       C  0.07093672  0.49809928  0.26108643    -0.14300
C1691       C  0.21313096  0.37257807  0.40344943    -0.12800
C1692       C  0.23123064  0.39202089  0.40319037     0.09300
C1693       C  0.25110765  0.39176404  0.42104846    -0.12800
C1694       C  0.25190360  0.37324980  0.43988437    -0.12800
C1695       C  0.23286485  0.35470684  0.44107674     0.09300
C1696       C  0.21396990  0.35404166  0.42221580    -0.12800
H1697       H  0.19772521  0.37226802  0.38977270     0.13300
H1698       H  0.26533429  0.40654377  0.42120533     0.13300
H1699       H  0.26668592  0.37416447  0.45419629     0.13300
H1700       H  0.19914146  0.33985930  0.42263364     0.13300
C1701       C  0.21187965  0.53667238  0.40494245    -0.12800
C1702       C  0.22725667  0.51512922  0.40751415     0.09300
C1703       C  0.24381551  0.51331111  0.42839094    -0.12800
C1704       C  0.24437371  0.53227484  0.44678390    -0.12800
C1705       C  0.22841627  0.55345444  0.44464733     0.09300
C1706       C  0.21247469  0.55568637  0.42333769    -0.12800
H1707       H  0.19893299  0.53853397  0.38905028     0.13300
H1708       H  0.25593002  0.49693629  0.43082756     0.13300
H1709       H  0.25681933  0.53004029  0.46302344     0.13300
H1710       H  0.19987278  0.57175023  0.42128972     0.13300
C1711       C  0.14740729  0.45221263  0.33104691    -0.12800
C1712       C  0.12614439  0.45228177  0.32224194    -0.14300
C1713       C  0.25955258  0.40341212  0.04663068    -0.12800
C1714       C  0.27679918  0.41356369  0.05768180    -0.14300
C1715       C  0.25931087  0.50660086  0.04932429    -0.12800
C1716       C  0.27649340  0.49538407  0.05936883    -0.14300
C1717       C  0.30213030  0.43184782  0.27124194    -0.12800
C1718       C  0.31346181  0.45441902  0.26310278     0.09300
C1719       C  0.30546850  0.47727320  0.27403273    -0.12800
C1720       C  0.28641077  0.47756941  0.29263429    -0.12800
C1721       C  0.27510443  0.45498298  0.30076114     0.09300
C1722       C  0.28319366  0.43212897  0.28993118    -0.12800
H1723       H  0.30801280  0.41396128  0.26327419     0.13300
H1724       H  0.31394769  0.49496153  0.26817680     0.13300
H1725       H  0.28063506  0.49542689  0.30075054     0.13300
H1726       H  0.27488104  0.41440366  0.29592969     0.13300
C1727       C  0.35000569  0.45422297  0.13442673    -0.12800
C1728       C  0.34200100  0.45401766  0.11293332    -0.14300
C1729       C  0.47366310  0.70499358  0.05652574    -0.12800
C1730       C  0.46301654  0.72207262  0.04590120    -0.14300
C1731       C  0.55548335  0.70440076  0.05747265    -0.12800
C1732       C  0.56580155  0.72192642  0.04725012    -0.14300
C1733       C  0.43110182  0.55791820  0.20497211    -0.12800
C1734       C  0.45478890  0.55504757  0.21708626     0.09300
C1735       C  0.46023208  0.53227632  0.22959089    -0.12800
C1736       C  0.44267799  0.51250967  0.22940824    -0.12800
C1737       C  0.41929280  0.51507949  0.21671219     0.09300
C1738       C  0.41348549  0.53809008  0.20479918    -0.12800
H1739       H  0.42649263  0.57520601  0.19504115     0.13300
H1740       H  0.47837267  0.52948876  0.23901458     0.13300
H1741       H  0.44766782  0.49499192  0.23874890     0.13300
H1742       H  0.39560852  0.54053619  0.19480888     0.13300
C1743       C  0.51268493  0.63270299  0.13408349    -0.12800
C1744       C  0.51326004  0.64095721  0.11273592    -0.14300
C1745       C  0.77682871  0.40894126  0.05036164    -0.12800
C1746       C  0.75992078  0.41979198  0.06124304    -0.14300
C1747       C  0.76111604  0.50147066  0.06348611    -0.12800
C1748       C  0.77830151  0.51202689  0.05264609    -0.14300
C1749       C  0.59966059  0.52824699  0.23591249    -0.12800
C1750       C  0.61305980  0.52148378  0.21386407     0.09300
C1751       C  0.60814747  0.53467458  0.19125283    -0.12800
C1752       C  0.58969842  0.55375265  0.19054028    -0.12800
C1753       C  0.57580758  0.56004825  0.21243244     0.09300
C1754       C  0.58123965  0.54737100  0.23521169    -0.12800
H1755       H  0.60303408  0.51839208  0.25358638     0.13300
H1756       H  0.61813926  0.52983654  0.17394078     0.13300
H1757       H  0.58584266  0.56312308  0.17269063     0.13300
H1758       H  0.57075688  0.55176737  0.25235883     0.13300
C1759       C  0.68739403  0.45836355  0.13931225    -0.12800
C1760       C  0.69602659  0.45935720  0.11807289    -0.14300
C1761       C  0.47760258  0.21596953  0.06250380    -0.12800
C1762       C  0.46679438  0.19931329  0.05135866    -0.14300
C1763       C  0.57238224  0.20057368  0.05004172    -0.12800
C1764       C  0.56098516  0.21708004  0.06090149    -0.14300
C1765       C  0.43727365  0.35336443  0.19904677    -0.12800
C1766       C  0.45399242  0.35173133  0.21979084     0.09300
C1767       C  0.45095871  0.36847617  0.24018699    -0.12800
C1768       C  0.43232258  0.38730230  0.23934209    -0.12800
C1769       C  0.41645799  0.38975846  0.21803599     0.09300
C1770       C  0.41868552  0.37226050  0.19815952    -0.12800
H1771       H  0.43929483  0.34076627  0.18301797     0.13300
H1772       H  0.46363260  0.36762326  0.25640929     0.13300
H1773       H  0.43098714  0.40052418  0.25492447     0.13300
H1774       H  0.40670291  0.37375793  0.18147694     0.13300
C1775       C  0.57437094  0.38047171  0.23939522    -0.12800
C1776       C  0.57822905  0.35855325  0.22490041     0.09300
C1777       C  0.60119878  0.35568539  0.21151267    -0.12800
C1778       C  0.61935497  0.37496219  0.21145076    -0.12800
C1779       C  0.61488915  0.39746438  0.22478804     0.09300
C1780       C  0.59255408  0.39975647  0.23935241    -0.12800
H1781       H  0.55687526  0.38312549  0.25000962     0.13300
H1782       H  0.60471193  0.33894681  0.20027350     0.13300
H1783       H  0.63645530  0.37263783  0.20015698     0.13300
H1784       H  0.58867185  0.41684810  0.24990998     0.13300
C1785       C  0.52021769  0.28788108  0.13894309    -0.12800
C1786       C  0.51966691  0.27998457  0.11744325    -0.14300
C1787       C  0.48330240  0.01196031  0.26863694    -0.12800
C1788       C  0.47139549  0.00230103  0.25170888    -0.14300
C1789       C  0.56552664  0.01020748  0.26633854    -0.12800
C1790       C  0.57497067  0.99972400  0.24840458    -0.14300
C1791       C  0.43597588  0.15087953  0.40691919    -0.12800
C1792       C  0.45582591  0.16862736  0.40761653     0.09300
C1793       C  0.45524431  0.18764685  0.42615235    -0.12800
C1794       C  0.43613247  0.18793812  0.44463299    -0.12800
C1795       C  0.41717577  0.16927363  0.44489410     0.09300
C1796       C  0.41675471  0.15124492  0.42536908    -0.12800
H1797       H  0.43588433  0.13609125  0.39275445     0.13300
H1798       H  0.47021536  0.20164521  0.42708049     0.13300
H1799       H  0.43684215  0.20215154  0.45937561     0.13300
H1800       H  0.40230234  0.13669168  0.42506994     0.13300
C1801       C  0.49851917  0.21848903  0.29256746    -0.12800
C1802       C  0.52133673  0.21219847  0.30502316     0.09300
C1803       C  0.54393419  0.22460253  0.29801763    -0.12800
C1804       C  0.54365220  0.24309636  0.27906501    -0.12800
C1805       C  0.52073211  0.24966887  0.26690276     0.09300
C1806       C  0.49820389  0.23709580  0.27376753    -0.12800
H1807       H  0.48082126  0.20926358  0.29760297     0.13300
H1808       H  0.56180717  0.22011375  0.30729242     0.13300
H1809       H  0.56129689  0.25250473  0.27418266     0.13300
H1810       H  0.48026254  0.24177106  0.26471422     0.13300
C1811       C  0.52624902  0.08586509  0.34153173    -0.12800
C1812       C  0.52700519  0.06476638  0.33297234    -0.14300
C1813       C  0.75801463  0.01439368  0.46519264    -0.12800
C1814       C  0.77415500  0.00350839  0.45334861    -0.14300
C1815       C  0.76176098  0.01142258  0.54841999    -0.12800
C1816       C  0.77850986  0.99984979  0.55881664    -0.14300
C1817       C  0.62284957  0.15447987  0.42903265    -0.12800
C1818       C  0.61999713  0.17031198  0.45021178     0.09300
C1819       C  0.59848841  0.18601445  0.45183967    -0.12800
C1820       C  0.57959415  0.18510710  0.43325730    -0.12800
C1821       C  0.58189918  0.16858104  0.41259884     0.09300
C1822       C  0.60394597  0.15366386  0.41031490    -0.12800
H1823       H  0.63927509  0.14218949  0.42733772     0.13300
H1824       H  0.59581533  0.19840943  0.46795132     0.13300
H1825       H  0.56284196  0.19688503  0.43542183     0.13300
H1826       H  0.60617572  0.14078588  0.39452945     0.13300
C1827       C  0.68888431  0.09003191  0.51160585    -0.12800
C1828       C  0.69656499  0.06858031  0.51114850    -0.14300
C1829       C  0.46642560  0.00178830  0.76641193    -0.12800
C1830       C  0.47754408  0.01280995  0.74982283    -0.14300
C1831       C  0.57008945  0.99731996  0.76538409    -0.12800
C1832       C  0.56002034  0.00871993  0.74839801    -0.14300
C1833       C  0.45786983  0.18749671  0.58948316    -0.12800
C1834       C  0.45838561  0.16897801  0.60853806     0.09300
C1835       C  0.43922973  0.15047749  0.60883141    -0.12800
C1836       C  0.42051081  0.14993578  0.58990264    -0.12800
C1837       C  0.42058998  0.16787722  0.57029962     0.09300
C1838       C  0.43915578  0.18695409  0.57055878    -0.12800
H1839       H  0.47232722  0.20203460  0.58882694     0.13300
H1840       H  0.43915731  0.13595333  0.62326858     0.13300
H1841       H  0.40643778  0.13501837  0.59018397     0.13300
H1842       H  0.43961674  0.20110157  0.55574691     0.13300
C1843       C  0.58478918  0.19251423  0.59505296    -0.12800
C1844       C  0.58418051  0.17355066  0.61360650     0.09300
C1845       C  0.60345123  0.15511056  0.61381736    -0.12800
C1846       C  0.62209047  0.15474168  0.59485060    -0.12800
C1847       C  0.62169421  0.17278566  0.57537652     0.09300
C1848       C  0.60335172  0.19208902  0.57605670    -0.12800
H1849       H  0.57024842  0.20702170  0.59454745     0.13300
H1850       H  0.60342329  0.14027715  0.62793809     0.13300
H1851       H  0.63606594  0.13968560  0.59476726     0.13300
H1852       H  0.60279299  0.20636435  0.56136981     0.13300
C1853       C  0.52043874  0.08948766  0.67907590    -0.12800
C1854       C  0.52039841  0.06798738  0.68668941    -0.14300
C1855       C  0.27398198  0.41923527  0.95257478    -0.12800
C1856       C  0.25770427  0.40762489  0.96360964    -0.14300
C1857       C  0.25911059  0.51203438  0.96718337    -0.12800
C1858       C  0.27601504  0.50170051  0.95569709    -0.14300
C1859       C  0.33789821  0.45659499  0.99376541    -0.12800
C1860       C  0.33855199  0.45560040  0.01671579    -0.14300
C1861       C  0.29510170  0.47614133  0.74502781    -0.12800
C1862       C  0.30773587  0.45379122  0.75183094     0.09300
C1863       C  0.29979909  0.43097063  0.74075189    -0.12800
C1864       C  0.28021907  0.43076460  0.72252275    -0.12800
C1865       C  0.26827711  0.45337952  0.71509902     0.09300
C1866       C  0.27565976  0.47593685  0.72691664    -0.12800
H1867       H  0.30056695  0.49396768  0.75339918     0.13300
H1868       H  0.30911384  0.41341561  0.74572537     0.13300
H1869       H  0.27488969  0.41307096  0.71378681     0.13300
H1870       H  0.26669760  0.49363197  0.72179641     0.13300
C1871       C  0.34745831  0.46014762  0.87662054    -0.12800
C1872       C  0.33891613  0.46055096  0.89790922    -0.14300
C1873       C  0.47542267  0.70511975  0.95331733    -0.12800
C1874       C  0.46411510  0.72184147  0.96381995    -0.14300
C1875       C  0.55797163  0.70319262  0.95507543    -0.12800
C1876       C  0.56809499  0.72045786  0.96592996    -0.14300
C1877       C  0.51419513  0.64126260  0.99368652    -0.12800
C1878       C  0.51400328  0.64140017  0.01666463    -0.14300
C1879       C  0.44917204  0.54427965  0.77305676    -0.12800
C1880       C  0.44908229  0.56217934  0.79272620     0.09300
C1881       C  0.42988614  0.56097060  0.81124777    -0.12800
C1882       C  0.41191208  0.54152201  0.81087502    -0.12800
C1883       C  0.41300506  0.52264486  0.79221143     0.09300
C1884       C  0.43141122  0.52455013  0.77291389    -0.12800
H1885       H  0.46377460  0.54477332  0.75852679     0.13300
H1886       H  0.42929045  0.57458880  0.82653753     0.13300
H1887       H  0.39789316  0.54059365  0.82594667     0.13300
H1888       H  0.43262706  0.51032932  0.75822895     0.13300
C1889       C  0.51457812  0.63332200  0.87607462    -0.12800
C1890       C  0.51573596  0.64140659  0.89748668    -0.14300
C1891       C  0.75625341  0.41976801  0.95792750    -0.12800
C1892       C  0.77336580  0.40888394  0.96847955    -0.14300
C1893       C  0.76097755  0.50146325  0.95853954    -0.12800
C1894       C  0.77801761  0.51170760  0.96972731    -0.14300
C1895       C  0.69649273  0.46398614  0.99912909    -0.12800
C1896       C  0.69707181  0.46332285  0.02210355    -0.14300
C1897       C  0.61508419  0.54771871  0.80922586    -0.12800
C1898       C  0.61235215  0.52500079  0.79584631     0.09300
C1899       C  0.59085035  0.52161376  0.78031692    -0.12800
C1900       C  0.57173529  0.53997443  0.77934991    -0.12800
C1901       C  0.57384156  0.56213171  0.79375220     0.09300
C1902       C  0.59602425  0.56618138  0.80812292    -0.12800
H1903       H  0.63158509  0.55088298  0.82119604     0.13300
H1904       H  0.58831274  0.50434422  0.76969763     0.13300
H1905       H  0.55487694  0.53641928  0.76800569     0.13300
H1906       H  0.59816587  0.58313652  0.81931516     0.13300
C1907       C  0.68545852  0.46588027  0.88152842    -0.12800
C1908       C  0.69402250  0.46506352  0.90283126    -0.14300
C1909       C  0.47778681  0.21715666  0.95700359    -0.12800
C1910       C  0.46690095  0.20056238  0.96811793    -0.14300
C1911       C  0.57250703  0.20141910  0.96760209    -0.12800
C1912       C  0.56124672  0.21816927  0.95708174    -0.14300
C1913       C  0.51783865  0.27869537  0.99837900    -0.12800
C1914       C  0.51768873  0.27846567  0.02135341    -0.14300
C1915       C  0.49756321  0.24600522  0.74407982    -0.12800
C1916       C  0.52050132  0.25311715  0.75583104     0.09300
C1917       C  0.54317617  0.24076048  0.74884486    -0.12800
C1918       C  0.54295112  0.22207254  0.73004822    -0.12800
C1919       C  0.52006640  0.21543162  0.71786520     0.09300
C1920       C  0.49735169  0.22741328  0.72527367    -0.12800
H1921       H  0.47977404  0.25514852  0.74911031     0.13300
H1922       H  0.56112013  0.24581552  0.75760771     0.13300
H1923       H  0.56076061  0.21312263  0.72474105     0.13300
H1924       H  0.47943390  0.22265104  0.71628738     0.13300
C1925       C  0.43723729  0.35899556  0.81409591    -0.12800
C1926       C  0.45851191  0.36089247  0.79803730     0.09300
C1927       C  0.45962556  0.38077648  0.78044655    -0.12800
C1928       C  0.44020733  0.39885854  0.77958484    -0.12800
C1929       C  0.41946235  0.39756459  0.79636843     0.09300
C1930       C  0.41789740  0.37719754  0.81336106    -0.12800
H1931       H  0.43588723  0.34376653  0.82787194     0.13300
H1932       H  0.47568447  0.38266977  0.76787890     0.13300
H1933       H  0.44191766  0.41444831  0.76626215     0.13300
H1934       H  0.40217293  0.37571937  0.82641515     0.13300
C1935       C  0.58462170  0.37677539  0.77840752    -0.12800
C1936       C  0.58275066  0.36031858  0.79921509     0.09300
C1937       C  0.59935476  0.36354928  0.81984744    -0.12800
C1938       C  0.61674995  0.38345461  0.82017182    -0.12800
C1939       C  0.61783931  0.40060894  0.79993932     0.09300
C1940       C  0.60196234  0.39683362  0.77880308    -0.12800
H1941       H  0.57198425  0.37475226  0.76226834     0.13300
H1942       H  0.59826677  0.35124173  0.83617525     0.13300
H1943       H  0.62872776  0.38594949  0.83673259     0.13300
H1944       H  0.60248223  0.40973871  0.76292380     0.13300
C1945       C  0.51895036  0.28179176  0.90238172    -0.12800
C1946       C  0.51925563  0.29018273  0.88110541    -0.14300
C1947       C  0.96385598  0.41898112  0.25960129    -0.12800
C1948       C  0.97387506  0.40900956  0.24161414    -0.14300
C1949       C  0.96720885  0.50047201  0.26162175    -0.12800
C1950       C  0.97814938  0.51169249  0.24508689    -0.14300
C1951       C  0.02975309  0.45593026  0.32276914    -0.12800
C1952       C  0.00668009  0.45686090  0.32313607    -0.14300
C1953       C  0.75067553  0.48429316  0.29254940    -0.12800
C1954       C  0.75972932  0.46171822  0.30328159     0.09300
C1955       C  0.74957655  0.43876073  0.29465080    -0.12800
C1956       C  0.73056532  0.43839492  0.27597017    -0.12800
C1957       C  0.72128816  0.46097379  0.26544315     0.09300
C1958       C  0.73169791  0.48392364  0.27380438    -0.12800
H1959       H  0.75819296  0.50227185  0.29872795     0.13300
H1960       H  0.75616490  0.42105356  0.30252061     0.13300
H1961       H  0.72294721  0.42040875  0.26992734     0.13300
H1962       H  0.72498948  0.50162910  0.26602867     0.13300
C1963       C  0.88904305  0.46214433  0.33433747    -0.12800
C1964       C  0.91025542  0.46107084  0.32542485    -0.14300
C1965       C  0.97664498  0.20749084  0.45083770    -0.12800
C1966       C  0.96640962  0.22439126  0.46209237    -0.14300
C1967       C  0.97638473  0.20373563  0.55478158    -0.12800
C1968       C  0.96637624  0.22133927  0.54439593    -0.14300
C1969       C  0.00827436  0.28436499  0.50471783    -0.12800
C1970       C  0.03133617  0.28370320  0.50421203    -0.14300
C1971       C  0.75317409  0.24799017  0.53414833    -0.12800
C1972       C  0.76158053  0.25802185  0.51091133     0.09300
C1973       C  0.75100950  0.24870742  0.48831123    -0.12800
C1974       C  0.73260395  0.22968095  0.48883989    -0.12800
C1975       C  0.72433310  0.21945752  0.51198086     0.09300
C1976       C  0.73470759  0.22887161  0.53467798    -0.12800
H1977       H  0.76086097  0.25491960  0.55188825     0.13300
H1978       H  0.75697423  0.25614960  0.47013637     0.13300
H1979       H  0.72484181  0.22294505  0.47105422     0.13300
H1980       H  0.72853804  0.22147914  0.55280895     0.13300
C1981       C  0.79071459  0.38152505  0.44487517    -0.12800
C1982       C  0.80948470  0.36263583  0.44490754     0.09300
C1983       C  0.82805085  0.36253383  0.42566863    -0.12800
C1984       C  0.82814361  0.38138657  0.40706382    -0.12800
C1985       C  0.80973243  0.40067131  0.40750127     0.09300
C1986       C  0.79088611  0.40037933  0.42642215    -0.12800
H1987       H  0.77633202  0.38220227  0.45960250     0.13300
H1988       H  0.84283040  0.34823777  0.42535156     0.13300
H1989       H  0.84296738  0.38125114  0.39276734     0.13300
H1990       H  0.77656390  0.41509530  0.42733213     0.13300
C1991       C  0.89020609  0.29485235  0.50641470    -0.12800
C1992       C  0.91182961  0.28717590  0.50573860    -0.14300
C1993       C  0.96549475  0.70631993  0.46304968    -0.12800
C1994       C  0.97691795  0.72274387  0.45219692    -0.14300
C1995       C  0.96708901  0.70625599  0.54635864    -0.12800
C1996       C  0.97866648  0.72227495  0.55760817    -0.14300
C1997       C  0.00723610  0.64533183  0.50566234    -0.12800
C1998       C  0.03029186  0.64521892  0.50663215    -0.14300
C1999       C  0.79449595  0.53923559  0.45047770    -0.12800
C2000       C  0.80896477  0.56123874  0.44713507     0.09300
C2001       C  0.82330302  0.56417968  0.42482838    -0.12800
C2002       C  0.82340098  0.54526011  0.40631353    -0.12800
C2003       C  0.80925511  0.52307025  0.40990048     0.09300
C2004       C  0.79467575  0.52033559  0.43207490    -0.12800
H2005       H  0.78346820  0.53636000  0.46759884     0.13300
H2006       H  0.83474242  0.58092462  0.42187569     0.13300
H2007       H  0.83489032  0.54777059  0.38945084     0.13300
H2008       H  0.78372540  0.50334989  0.43543312     0.13300
C2009       C  0.91090874  0.64248938  0.50598256    -0.12800
C2010       C  0.88964268  0.63383478  0.50670862    -0.14300
C2011       C  0.97196705  0.41288419  0.76761245    -0.12800
C2012       C  0.96080374  0.42429513  0.75124645    -0.14300
C2013       C  0.95939770  0.50602804  0.75278634    -0.12800
C2014       C  0.96999791  0.51574042  0.77048048    -0.14300
C2015       C  0.00102295  0.46554695  0.68966242    -0.12800
C2016       C  0.02413178  0.46497558  0.68996206    -0.14300
C2017       C  0.74591671  0.48627778  0.72214473    -0.12800
C2018       C  0.75699129  0.46350064  0.71410767     0.09300
C2019       C  0.75020357  0.44105893  0.72656127    -0.12800
C2020       C  0.73222688  0.44134681  0.74625144    -0.12800
C2021       C  0.72077959  0.46409958  0.75389907     0.09300
C2022       C  0.72804675  0.48657614  0.74184182    -0.12800
H2023       H  0.75086175  0.50387836  0.71300982     0.13300
H2024       H  0.75854426  0.42323597  0.72086315     0.13300
H2025       H  0.72702921  0.42374569  0.75524764     0.13300
H2026       H  0.71956049  0.50439767  0.74732978     0.13300
C2027       C  0.78954013  0.40562459  0.58277379    -0.12800
C2028       C  0.80334858  0.40274413  0.60540105     0.09300
C2029       C  0.81802051  0.38085793  0.60902135    -0.12800
C2030       C  0.81922880  0.36238330  0.59010779    -0.12800
C2031       C  0.80594568  0.36562934  0.56720613     0.09300
C2032       C  0.79092743  0.38730777  0.56381913    -0.12800
H2033       H  0.77829422  0.42241938  0.57938053     0.13300
H2034       H  0.82894110  0.37825858  0.62626401     0.13300
H2035       H  0.83101591  0.34587727  0.59314658     0.13300
H2036       H  0.78057101  0.39034468  0.54629305     0.13300
C2037       C  0.82272403  0.54318279  0.60602837    -0.12800
C2038       C  0.80293601  0.52538419  0.60608812     0.09300
C2039       C  0.78353947  0.52731214  0.58778479    -0.12800
C2040       C  0.78439409  0.54631609  0.56932836    -0.12800
C2041       C  0.80473011  0.56358329  0.56882476     0.09300
C2042       C  0.82364597  0.56202270  0.58757076    -0.12800
H2043       H  0.83798568  0.54208840  0.61981174     0.13300
H2044       H  0.76808847  0.51378480  0.58735604     0.13300
H2045       H  0.76961022  0.54701488  0.55501140     0.13300
H2046       H  0.83959322  0.57498588  0.58758106     0.13300
C2047       C  0.88299775  0.46569667  0.67879400    -0.12800
C2048       C  0.90432296  0.46583546  0.68754811    -0.14300
C2049       C  0.46615693  0.92098478  0.25189761    -0.12800
C2050       C  0.47682033  0.90964416  0.26855476    -0.14300
C2051       C  0.55970890  0.90713530  0.26495763    -0.12800
C2052       C  0.57068142  0.91799102  0.24814076    -0.14300
C2053       C  0.52318324  0.94673050  0.32996899    -0.12800
C2054       C  0.52452956  0.96951848  0.33004198    -0.14300
C2055       C  0.53525827  0.68898890  0.29367567    -0.12800
C2056       C  0.51300159  0.70241280  0.29992316     0.02100
C2057       C  0.49033186  0.69687866  0.28679900    -0.12800
C2058       C  0.48996368  0.67821674  0.26790745    -0.12800
C2059       C  0.51227904  0.66481756  0.26170075     0.09300
C2060       C  0.53491540  0.67047024  0.27477582    -0.12800
H2061       H  0.55298967  0.69269657  0.30353428     0.13300
H2062       H  0.47287861  0.70690134  0.29120452     0.13300
H2063       H  0.47223906  0.67428415  0.25814027     0.13300
H2064       H  0.55237082  0.66037249  0.27056541     0.13300
C2065       C  0.51896438  0.85123128  0.32915498    -0.12800
C2066       C  0.51813324  0.82980890  0.33695474    -0.14300
C2067       C  0.75723670  0.90969943  0.46423036    -0.12800
C2068       C  0.77357166  0.92088203  0.45279329    -0.14300
C2069       C  0.77840770  0.91731056  0.55717523    -0.12800
C2070       C  0.76082643  0.90696709  0.54687532    -0.14300
C2071       C  0.69755604  0.95012372  0.50871193    -0.12800
C2072       C  0.69781142  0.97297863  0.50884194    -0.14300
C2073       C  0.73520436  0.69978930  0.52782193    -0.12800
C2074       C  0.72396357  0.70759088  0.50494268     0.09300
C2075       C  0.73282886  0.69708086  0.48208464    -0.12800
C2076       C  0.75207521  0.67867058  0.48219706    -0.12800
C2077       C  0.76294589  0.67052215  0.50516606     0.09300
C2078       C  0.75454190  0.68155399  0.52792151    -0.12800
H2079       H  0.72887870  0.70763652  0.54571173     0.13300
H2080       H  0.72451446  0.70271682  0.46415029     0.13300
H2081       H  0.75815441  0.67052492  0.46435956     0.13300
H2082       H  0.76258922  0.67572896  0.54591665     0.13300
C2083       C  0.59792412  0.72953001  0.44302825    -0.12800
C2084       C  0.61709945  0.74801209  0.44247890     0.09300
C2085       C  0.61766263  0.76519015  0.42221503    -0.12800
C2086       C  0.59856505  0.76484581  0.40367993    -0.12800
C2087       C  0.57848982  0.74739427  0.40513218     0.09300
C2088       C  0.57874864  0.72927340  0.42457040    -0.12800
H2089       H  0.59709548  0.71594865  0.45834861     0.13300
H2090       H  0.63226988  0.77957181  0.42125635     0.13300
H2091       H  0.59890198  0.77895966  0.38884566     0.13300
H2092       H  0.56362847  0.71546735  0.42603294     0.13300
C2093       C  0.69324944  0.85455643  0.50675538    -0.12800
C2094       C  0.68461207  0.83339695  0.50652555    -0.14300
C2095       C  0.47500307  0.90848064  0.74888689    -0.12800
C2096       C  0.46487994  0.91937762  0.76614477    -0.14300
C2097       C  0.55682544  0.90713387  0.74678728    -0.12800
C2098       C  0.56763163  0.91652020  0.76451351    -0.14300
C2099       C  0.51438552  0.94958885  0.68537281    -0.12800
C2100       C  0.51521312  0.97242783  0.68557004    -0.14300
C2101       C  0.53608645  0.69254456  0.71798070    -0.12800
C2102       C  0.51362635  0.70556833  0.71159388     0.09300
C2103       C  0.49096016  0.69976141  0.72454644    -0.12800
C2104       C  0.49071123  0.68119768  0.74340598    -0.12800
C2105       C  0.51311188  0.66802054  0.74963651     0.09300
C2106       C  0.53582749  0.67394847  0.73681044    -0.12800
H2107       H  0.55380535  0.69655646  0.70824989     0.13300
H2108       H  0.47336101  0.70948124  0.71999893     0.13300
H2109       H  0.47292971  0.67698986  0.75294615     0.13300
H2110       H  0.55337063  0.66402512  0.74115321     0.13300
C2111       C  0.57473790  0.73408293  0.58440203    -0.12800
C2112       C  0.57541220  0.75169916  0.60428275     0.09300
C2113       C  0.59590239  0.76866060  0.60567630    -0.12800
C2114       C  0.61488267  0.76862047  0.58700788    -0.12800
C2115       C  0.61372032  0.75159939  0.56663003     0.09300
C2116       C  0.59371513  0.73402857  0.56576008    -0.12800
H2117       H  0.55919331  0.72074735  0.58290136     0.13300
H2118       H  0.59685849  0.78246782  0.62078007     0.13300
H2119       H  0.63005421  0.78239848  0.58811844     0.13300
H2120       H  0.59235811  0.72066175  0.55029240     0.13300
C2121       C  0.51385093  0.83265192  0.67469322    -0.12800
C2122       C  0.51378529  0.85399982  0.68264216    -0.14300
C2123       C  0.27309002  0.90852897  0.46088957    -0.12800
C2124       C  0.25674238  0.92062315  0.45045172    -0.14300
C2125       C  0.27281696  0.90685329  0.54351364    -0.12800
C2126       C  0.25599866  0.91735992  0.55487840    -0.14300
C2127       C  0.33678333  0.94623533  0.50288893    -0.12800
C2128       C  0.33763265  0.96905234  0.50376418    -0.14300
C2129       C  0.29951352  0.69064762  0.52944499    -0.12800
C2130       C  0.30860169  0.70097480  0.50660551     0.09300
C2131       C  0.29881810  0.69178564  0.48358446    -0.12800
C2132       C  0.28072093  0.67239223  0.48334303    -0.12800
C2133       C  0.27201191  0.66170120  0.50612922     0.09300
C2134       C  0.28141755  0.67120292  0.52920295    -0.12800
H2135       H  0.30663740  0.69736764  0.54748373     0.13300
H2136       H  0.30538806  0.69940865  0.46567563     0.13300
H2137       H  0.27375560  0.66556728  0.46528738     0.13300
H2138       H  0.27496559  0.66343207  0.54708765     0.13300
C2139       C  0.43745466  0.73293787  0.44744889    -0.12800
C2140       C  0.41536885  0.74771991  0.44500784     0.09300
C2141       C  0.41181923  0.76195810  0.42278922    -0.12800
C2142       C  0.43057662  0.76214376  0.40381663    -0.12800
C2143       C  0.45296397  0.74779844  0.40663351     0.09300
C2144       C  0.45594395  0.73282275  0.42839326    -0.12800
H2145       H  0.44069457  0.72179506  0.46436849     0.13300
H2146       H  0.39499843  0.77360355  0.42049123     0.13300
H2147       H  0.42783207  0.77388909  0.38723051     0.13300
H2148       H  0.47304700  0.72167964  0.43113994     0.13300
C2149       C  0.43003293  0.72913974  0.57154831    -0.12800
C2150       C  0.41230323  0.74893587  0.56968066     0.09300
C2151       C  0.41312787  0.76856653  0.58753802    -0.12800
C2152       C  0.43197543  0.76892608  0.60628014    -0.12800
C2153       C  0.45038882  0.74971152  0.60743545     0.09300
C2154       C  0.44895022  0.72955573  0.59022655    -0.12800
H2155       H  0.42985506  0.71378527  0.55800949     0.13300
H2156       H  0.39975216  0.78410402  0.58648495     0.13300
H2157       H  0.43272887  0.78475101  0.61924187     0.13300
H2158       H  0.46291952  0.71450502  0.59070916     0.13300
C2159       C  0.34366561  0.82934636  0.50316723    -0.12800
C2160       C  0.33578482  0.85072824  0.50204862    -0.14300
loop_ 
_geom_bond_atom_site_label_1 
_geom_bond_atom_site_label_2 
_geom_bond_distance 
_geom_bond_site_symmetry_2 
_ccdc_geom_bond_type 
In1           O3   2.259       .  S
In1           O4   2.252       .  S
In1          O12   2.271       .  S
In1           O6   2.262       .  S
In1           O8   2.264       .  S
In1           O9   2.246       .  S
In1          O10   2.244       .  S
In1          O13   2.246       .  S
C2            O8   1.260       .  A
C2           O10   1.259       .  A
C2         C2140   1.478       .  S
O3           C11   1.261       .  A
O4           C11   1.257       .  A
C5           O12   1.259       .  A
C5            O6   1.259       .  A
C5         C2130   1.485       .  S
C7            O9   1.262       .  A
C7           O13   1.262       .  A
C7         C2150   1.477       .  S
C11        C2159   1.439       .  S
C14          C15   1.549       .  S
C14          C20   1.541       .  S
C14          C18   1.538       .  S
C14        C2160   1.471       .  S
C15          H22   1.086       .  S
C15          C16   1.371       .  D
C16          C17   1.531       .  S
C16        C2127   1.452       .  S
C17          C21   1.528       .  S
C17          C19   1.529       .  S
C17          H23   1.113       .  S
C18          H24   1.087       .  S
C18          C19   1.358       .  D
C19        C2125   1.436       .  S
C20          H25   1.086       .  S
C20          C21   1.363       .  D
C21        C2123   1.437       .  S
In26         O28   2.255       .  S
In26         O29   2.250       .  S
In26         O37   2.258       .  S
In26         O31   2.260       .  S
In26         O33   2.249       .  S
In26         O34   2.245       .  S
In26         O35   2.242       .  S
In26         O38   2.257       .  S
C27          O33   1.261       .  A
C27          O35   1.260       .  A
C27        C2153   1.476       .  S
O28          C36   1.262       .  A
O29          C36   1.258       .  A
C30          O37   1.258       .  A
C30          O31   1.259       .  A
C30        C2102   1.480       .  S
C32          O34   1.259       .  A
C32          O38   1.260       .  A
C32        C2112   1.477       .  S
C36        C2121   1.438       .  S
C39          C40   1.549       .  S
C39          C45   1.539       .  S
C39          C43   1.538       .  S
C39        C2122   1.469       .  S
C40          H47   1.086       .  S
C40          C41   1.371       .  D
C41          C42   1.531       .  S
C41        C2099   1.452       .  S
C42          C46   1.527       .  S
C42          C44   1.528       .  S
C42          H48   1.113       .  S
C43          H49   1.086       .  S
C43          C44   1.359       .  D
C44        C2097   1.435       .  S
C45          H50   1.087       .  S
C45          C46   1.360       .  D
C46        C2095   1.434       .  S
In51         O53   2.265       .  S
In51         O54   2.257       .  S
In51         O62   2.264       .  S
In51         O56   2.269       .  S
In51         O58   2.261       .  S
In51         O59   2.255       .  S
In51         O60   2.253       .  S
In51         O63   2.247       .  S
C52          O58   1.260       .  A
C52          O60   1.258       .  A
C52        C2115   1.479       .  S
O53          C61   1.260       .  A
O54          C61   1.261       .  A
C55          O62   1.259       .  A
C55          O56   1.259       .  A
C55        C2074   1.484       .  S
C57          O59   1.262       .  A
C57          O63   1.260       .  A
C57        C2084   1.480       .  S
C61        C2094   1.444       .  S
C64          C65   1.550       .  S
C64          C70   1.541       .  S
C64          C68   1.542       .  S
C64        C2093   1.476       .  S
C65          H72   1.086       .  S
C65          C66   1.372       .  D
C66          C67   1.530       .  S
C66        C2071   1.452       .  S
C67          C71   1.528       .  S
C67          C69   1.527       .  S
C67          H73   1.113       .  S
C68          H74   1.086       .  S
C68          C69   1.362       .  D
C69        C2067   1.439       .  S
C70          H75   1.086       .  S
C70          C71   1.361       .  D
C71        C2070   1.438       .  S
In76         O78   2.257       .  S
In76         O79   2.256       .  S
In76         O87   2.274       .  S
In76         O81   2.258       .  S
In76         O83   2.259       .  S
In76         O84   2.264       .  S
In76         O85   2.255       .  S
In76         O88   2.240       .  S
C77          O83   1.260       .  A
C77          O85   1.259       .  A
C77        C2087   1.480       .  S
O78          C86   1.262       .  A
O79          C86   1.259       .  A
C80          O87   1.259       .  A
C80          O81   1.258       .  A
C80        C2056   1.485       .  S
C82          O84   1.261       .  A
C82          O88   1.260       .  A
C82        C2143   1.479       .  S
C86        C2066   1.441       .  S
C89          C90   1.550       .  S
C89          C95   1.541       .  S
C89          C93   1.539       .  S
C89        C2065   1.473       .  S
C90          H97   1.086       .  S
C90          C91   1.371       .  D
C91          C92   1.529       .  S
C91        C2053   1.449       .  S
C92          C96   1.527       .  S
C92          C94   1.527       .  S
C92          H98   1.113       .  S
C93          H99   1.086       .  S
C93          C94   1.360       .  D
C94        C2050   1.436       .  S
C95         H100   1.086       .  S
C95          C96   1.362       .  D
C96        C2051   1.439       .  S
In101       O103   2.255       .  S
In101       O104   2.255       .  S
In101       O112   2.268       .  S
In101       O106   2.253       .  S
In101       O108   2.243       .  S
In101       O109   2.255       .  S
In101       O110   2.261       .  S
In101       O113   2.245       .  S
C102        O108   1.260       .  A
C102        O110   1.260       .  A
C102       C2038   1.478       .  S
O103        C111   1.260       .  A
O104        C111   1.261       .  A
C105        O112   1.260       .  A
C105        O106   1.259       .  A
C105       C2018   1.482       .  S
C107        O109   1.260       .  A
C107        O113   1.259       .  A
C107       C2028   1.476       .  S
C111       C2047   1.441       .  S
C114        C115   1.550       .  S
C114        C120   1.540       .  S
C114        C118   1.543       .  S
C114       C2048   1.474       .  S
C115        H122   1.086       .  S
C115        C116   1.371       .  D
C116        C117   1.529       .  S
C116       C2015   1.451   1_655  S
C117        C121   1.527       .  S
C117        C119   1.526       .  S
C117        H123   1.113       .  S
C118        H124   1.086       .  S
C118        C119   1.363       .  D
C119       C2012   1.441       .  S
C120        H125   1.086       .  S
C120        C121   1.361       .  D
C121       C2013   1.436       .  S
In126       O128   2.251       .  S
In126       O129   2.253       .  S
In126       O137   2.266       .  S
In126       O131   2.256       .  S
In126       O133   2.235       .  S
In126       O134   2.251       .  S
In126       O135   2.258       .  S
In126       O138   2.254       .  S
C127        O133   1.258       .  A
C127        O135   1.261       .  A
C127       C2000   1.475       .  S
O128        C136   1.261       .  A
O129        C136   1.259       .  A
C130        O137   1.260       .  A
C130        O131   1.260       .  A
C130       C2077   1.485       .  S
C132        O134   1.261       .  A
C132        O138   1.259       .  A
C132       C2041   1.479       .  S
C136       C2010   1.437       .  S
C139        C140   1.548       .  S
C139        C145   1.541       .  S
C139        C143   1.540       .  S
C139       C2009   1.469       .  S
C140        H147   1.086       .  S
C140        C141   1.370       .  D
C141        C142   1.529       .  S
C141       C1997   1.448   1_655  S
C142        C146   1.528       .  S
C142        C144   1.526       .  S
C142        H148   1.113       .  S
C143        H149   1.086       .  S
C143        C144   1.360       .  D
C144       C1995   1.435       .  S
C145        H150   1.086       .  S
C145        C146   1.361       .  D
C146       C1993   1.437       .  S
In151       O153   2.251       .  S
In151       O154   2.243       .  S
In151       O162   2.254       .  S
In151       O156   2.273       .  S
In151       O158   2.234       .  S
In151       O159   2.255       .  S
In151       O160   2.253       .  S
In151       O163   2.240       .  S
C152        O158   1.260       .  A
C152        O160   1.262       .  A
C152       C2031   1.475       .  S
O153        C161   1.261       .  A
O154        C161   1.257       .  A
C155        O162   1.258       .  A
C155        O156   1.259       .  A
C155       C1972   1.483       .  S
C157        O159   1.260       .  A
C157        O163   1.261       .  A
C157       C1982   1.476       .  S
C161       C1991   1.433       .  S
C164        C165   1.547       .  S
C164        C170   1.538       .  S
C164        C168   1.538       .  S
C164       C1992   1.464       .  S
C165        H172   1.086       .  S
C165        C166   1.370       .  D
C166        C167   1.531       .  S
C166       C1969   1.448   1_655  S
C167        C171   1.529       .  S
C167        C169   1.528       .  S
C167        H173   1.112       .  S
C168        H174   1.086       .  S
C168        C169   1.359       .  D
C169       C1966   1.434       .  S
C170        H175   1.087       .  S
C170        C171   1.359       .  D
C171       C1968   1.437       .  S
In176       O178   2.253       .  S
In176       O179   2.256       .  S
In176       O187   2.267       .  S
In176       O181   2.266       .  S
In176       O183   2.237       .  S
In176       O184   2.263       .  S
In176       O185   2.258       .  S
In176       O188   2.241       .  S
C177        O183   1.260       .  A
C177        O185   1.262       .  A
C177       C1985   1.477       .  S
O178        C186   1.258       .  A
O179        C186   1.261       .  A
C180        O187   1.259       .  A
C180        O181   1.259       .  A
C180       C1954   1.486       .  S
C182        O184   1.261       .  A
C182        O188   1.258       .  A
C182       C2003   1.477       .  S
C186       C1963   1.439       .  S
C189        C190   1.548       .  S
C189        C195   1.543       .  S
C189        C193   1.538       .  S
C189       C1964   1.472       .  S
C190        H197   1.086       .  S
C190        C191   1.370       .  D
C191        C192   1.531       .  S
C191       C1952   1.449   1_655  S
C192        C196   1.528       .  S
C192        C194   1.528       .  S
C192        H198   1.112       .  S
C193        H199   1.086       .  S
C193        C194   1.360       .  D
C194       C1949   1.435       .  S
C195        H200   1.086       .  S
C195        C196   1.363       .  D
C196       C1947   1.441       .  S
In201       O203   2.250       .  S
In201       O204   2.252       .  S
In201       O212   2.266       .  S
In201       O206   2.249       .  S
In201       O208   2.259       .  S
In201       O209   2.244       .  S
In201       O210   2.250       .  S
In201       O213   2.255       .  S
C202        O208   1.260       .  A
C202        O210   1.258       .  A
C202       C1926   1.478       .  S
O203        C211   1.259       .  A
O204        C211   1.261       .  A
C205        O212   1.261       .  A
C205        O206   1.259       .  A
C205       C1916   1.482       .  S
C207        O209   1.260       .  A
C207        O213   1.261       .  A
C207       C1936   1.478       .  S
C211       C1946   1.437       .  S
C214        C215   1.549       .  S
C214        C220   1.540       .  S
C214        C218   1.538       .  S
C214       C1945   1.469       .  S
C215        H222   1.086       .  S
C215        C216   1.371       .  D
C216        C217   1.530       .  S
C216       C1913   1.450       .  S
C217        C221   1.527       .  S
C217        C219   1.528       .  S
C217        H223   1.113       .  S
C218        H224   1.087       .  S
C218        C219   1.359       .  D
C219       C1912   1.436       .  S
C220        H225   1.086       .  S
C220        C221   1.361       .  D
C221       C1909   1.436       .  S
In226       O228   2.257       .  S
In226       O229   2.259       .  S
In226       O237   2.263       .  S
In226       O231   2.256       .  S
In226       O233   2.247       .  S
In226       O234   2.264       .  S
In226       O235   2.255       .  S
In226       O238   2.246       .  S
C227        O233   1.261       .  A
C227        O235   1.260       .  A
C227       C1939   1.478       .  S
O228        C236   1.262       .  A
O229        C236   1.260       .  A
C230        O237   1.259       .  A
C230        O231   1.259       .  A
C230       C2021   1.481       .  S
C232        O234   1.261       .  A
C232        O238   1.258       .  A
C232       C1898   1.478       .  S
C236       C1907   1.443       .  S
C239        C240   1.551       .  S
C239        C245   1.542       .  S
C239        C243   1.540       .  S
C239       C1908   1.475       .  S
C240        H247   1.086       .  S
C240        C241   1.372       .  D
C241        C242   1.528       .  S
C241       C1895   1.451       .  S
C242        C246   1.526       .  S
C242        C244   1.526       .  S
C242        H248   1.113       .  S
C243        H249   1.086       .  S
C243        C244   1.360       .  D
C244       C1893   1.435       .  S
C245        H250   1.087       .  S
C245        C246   1.362       .  D
C246       C1891   1.436       .  S
In251       O253   2.261       .  S
In251       O254   2.253       .  S
In251       O262   2.257       .  S
In251       O256   2.254       .  S
In251       O258   2.251       .  S
In251       O259   2.255       .  S
In251       O260   2.245       .  S
In251       O263   2.258       .  S
C252        O258   1.261       .  A
C252        O260   1.260       .  A
C252       C1901   1.477       .  S
O253        C261   1.262       .  A
O254        C261   1.258       .  A
C255        O262   1.260       .  A
C255        O256   1.259       .  A
C255       C2105   1.480       .  S
C257        O259   1.260       .  A
C257        O263   1.260       .  A
C257       C1880   1.480       .  S
C261       C1889   1.441       .  S
C264        C265   1.550       .  S
C264        C270   1.542       .  S
C264        C268   1.538       .  S
C264       C1890   1.473       .  S
C265        H272   1.086       .  S
C265        C266   1.371       .  D
C266        C267   1.530       .  S
C266       C1877   1.450       .  S
C267        C271   1.527       .  S
C267        C269   1.527       .  S
C267        H273   1.112       .  S
C268        H274   1.087       .  S
C268        C269   1.358       .  D
C269       C1873   1.435       .  S
C270        H275   1.086       .  S
C270        C271   1.363       .  D
C271       C1875   1.439       .  S
In276       O278   2.258       .  S
In276       O279   2.251       .  S
In276       O287   2.278       .  S
In276       O281   2.252       .  S
In276       O283   2.253       .  S
In276       O284   2.252       .  S
In276       O285   2.266       .  S
In276       O288   2.251       .  S
C277        O283   1.259       .  A
C277        O285   1.260       .  A
C277       C1883   1.482       .  S
O278        C286   1.260       .  A
O279        C286   1.261       .  A
C280        O287   1.259       .  A
C280        O281   1.258       .  A
C280       C1862   1.485       .  S
C282        O284   1.260       .  A
C282        O288   1.261       .  A
C282       C1929   1.478       .  S
C286       C1871   1.440       .  S
C289        C290   1.548       .  S
C289        C295   1.542       .  S
C289        C293   1.540       .  S
C289       C1872   1.472       .  S
C290        H297   1.082       .  S
C290        C291   1.370       .  D
C291        C292   1.531       .  S
C291       C1859   1.451       .  S
C292        C296   1.529       .  S
C292        C294   1.528       .  S
C292        H298   1.114       .  S
C293        H299   1.084       .  S
C293        C294   1.361       .  D
C294       C1855   1.437       .  S
C295        H300   1.079       .  S
C295        C296   1.363       .  D
C296       C1858   1.439       .  S
In301       O303   2.255       .  S
In301       O304   2.251       .  S
In301       O312   2.261       .  S
In301       O306   2.263       .  S
In301       O308   2.245       .  S
In301       O309   2.260       .  S
In301       O310   2.247       .  S
In301       O313   2.257       .  S
C302        O308   1.259       .  A
C302        O310   1.260       .  A
C302       C1844   1.475       .  S
O303        C311   1.262       .  A
O304        C311   1.259       .  A
C305        O312   1.259       .  A
C305        O306   1.258       .  A
C305       C1919   1.482       .  S
C307        O309   1.260       .  A
C307        O313   1.260       .  A
C307       C1834   1.482       .  S
C311       C1853   1.440       .  S
C314        C315   1.551       .  S
C314        C320   1.540       .  S
C314        C318   1.540       .  S
C314       C1854   1.473       .  S
C315        H322   1.086       .  S
C315        C316   1.372   1_545  D
C316        C317   1.529   1_565  S
C316       C2100   1.451       .  S
C317        C321   1.527       .  S
C317        C319   1.526       .  S
C317        H323   1.113   1_545  S
C318        H324   1.086       .  S
C318        C319   1.361       .  D
C319       C1830   1.437       .  S
C320        H325   1.086       .  S
C320        C321   1.362       .  D
C321       C1832   1.436       .  S
In326       O328   2.247       .  S
In326       O329   2.253       .  S
In326       O337   2.267       .  S
In326       O331   2.255       .  S
In326       O333   2.254       .  S
In326       O334   2.252       .  S
In326       O335   2.235       .  S
In326       O338   2.237       .  S
C327        O333   1.261       .  A
C327        O335   1.260       .  A
C327       C1818   1.475       .  S
O328        C336   1.258       .  A
O329        C336   1.262       .  A
C330        O337   1.258       .  A
C330        O331   1.258       .  A
C330       C1975   1.482       .  S
C332        O334   1.261       .  A
C332        O338   1.260       .  A
C332       C1847   1.474       .  S
C336       C1827   1.437       .  S
C339        C340   1.550       .  S
C339        C345   1.536       .  S
C339        C343   1.540       .  S
C339       C1828   1.468       .  S
C340        H347   1.086       .  S
C340        C341   1.372   1_545  D
C341        C342   1.530   1_565  S
C341       C2072   1.452       .  S
C342        C346   1.528       .  S
C342        C344   1.528       .  S
C342        H348   1.113   1_545  S
C343        H349   1.086       .  S
C343        C344   1.361       .  D
C344       C1815   1.437       .  S
C345        H350   1.087       .  S
C345        C346   1.358       .  D
C346       C1813   1.431       .  S
In351       O353   2.253       .  S
In351       O354   2.248       .  S
In351       O362   2.259       .  S
In351       O356   2.255       .  S
In351       O358   2.262       .  S
In351       O359   2.255       .  S
In351       O360   2.245       .  S
In351       O363   2.236       .  S
C352        O358   1.261       .  A
C352        O360   1.259       .  A
C352       C1792   1.479       .  S
O353        C361   1.259       .  A
O354        C361   1.261       .  A
C355        O362   1.258       .  A
C355        O356   1.259       .  A
C355       C1802   1.480       .  S
C357        O359   1.260       .  A
C357        O363   1.259       .  A
C357       C1821   1.474       .  S
C361       C1811   1.438       .  S
C364        C365   1.547       .  S
C364        C370   1.540       .  S
C364        C368   1.540       .  S
C364       C1812   1.470       .  S
C365        H372   1.086       .  S
C365        C366   1.370   1_545  D
C366        C367   1.533   1_565  S
C366       C2054   1.450       .  S
C367        C371   1.528       .  S
C367        C369   1.529       .  S
C367        H373   1.112   1_545  S
C368        H374   1.086       .  S
C368        C369   1.362       .  D
C369       C1789   1.437       .  S
C370        H375   1.086       .  S
C370        C371   1.360       .  D
C371       C1787   1.439       .  S
In376       O378   2.255       .  S
In376       O379   2.257       .  S
In376       O387   2.259       .  S
In376       O381   2.260       .  S
In376       O383   2.253       .  S
In376       O384   2.246       .  S
In376       O385   2.246       .  S
In376       O388   2.241       .  S
C377        O383   1.262       .  A
C377        O385   1.259       .  A
C377       C1776   1.478       .  S
O378        C386   1.261       .  A
O379        C386   1.259       .  A
C380        O387   1.259       .  A
C380        O381   1.258       .  A
C380       C1805   1.481       .  S
C382        O384   1.260       .  A
C382        O388   1.261       .  A
C382       C1766   1.474       .  S
C386       C1785   1.440       .  S
C389        C390   1.549       .  S
C389        C395   1.540       .  S
C389        C393   1.541       .  S
C389       C1786   1.472       .  S
C390        H397   1.086       .  S
C390        C391   1.371       .  D
C391        C392   1.531       .  S
C391       C1914   1.451       .  S
C392        C396   1.529       .  S
C392        C394   1.528       .  S
C392        H398   1.113       .  S
C393        H399   1.086       .  S
C393        C394   1.362       .  D
C394       C1761   1.438       .  S
C395        H400   1.086       .  S
C395        C396   1.360       .  D
C396       C1764   1.439       .  S
In401       O403   2.255       .  S
In401       O404   2.255       .  S
In401       O412   2.262       .  S
In401       O406   2.270       .  S
In401       O408   2.264       .  S
In401       O409   2.251       .  S
In401       O410   2.252       .  S
In401       O413   2.255       .  S
C402        O408   1.261       .  A
C402        O410   1.258       .  A
C402       C1750   1.481       .  S
O403        C411   1.262       .  A
O404        C411   1.259       .  A
C405        O412   1.259       .  A
C405        O406   1.261       .  A
C405       C1957   1.486       .  S
C407        O409   1.260       .  A
C407        O413   1.260       .  A
C407       C1779   1.479       .  S
C411       C1759   1.440       .  S
C414        C415   1.549       .  S
C414        C420   1.543       .  S
C414        C418   1.538       .  S
C414       C1760   1.472       .  S
C415        H422   1.086       .  S
C415        C416   1.371       .  D
C416        C417   1.532       .  S
C416       C1896   1.452       .  S
C417        C421   1.528       .  S
C417        C419   1.529       .  S
C417        H423   1.113       .  S
C418        H424   1.086       .  S
C418        C419   1.359       .  D
C419       C1746   1.436       .  S
C420        H425   1.086       .  S
C420        C421   1.364       .  D
C421       C1747   1.441       .  S
In426       O428   2.253       .  S
In426       O429   2.260       .  S
In426       O437   2.255       .  S
In426       O431   2.276       .  S
In426       O433   2.267       .  S
In426       O434   2.255       .  S
In426       O435   2.238       .  S
In426       O438   2.250       .  S
C427        O433   1.262       .  A
C427        O435   1.258       .  A
C427       C1734   1.478       .  S
O428        C436   1.257       .  A
O429        C436   1.261       .  A
C430        O437   1.259       .  A
C430        O431   1.261       .  A
C430       C2059   1.486       .  S
C432        O434   1.261       .  A
C432        O438   1.261       .  A
C432       C1753   1.480       .  S
C436       C1743   1.439       .  S
C439        C440   1.549       .  S
C439        C445   1.539       .  S
C439        C443   1.541       .  S
C439       C1744   1.471       .  S
C440        H447   1.086       .  S
C440        C441   1.371       .  D
C441        C442   1.532       .  S
C441       C1878   1.451       .  S
C442        C446   1.527       .  S
C442        C444   1.528       .  S
C442        H448   1.112       .  S
C443        H449   1.086       .  S
C443        C444   1.362       .  D
C444       C1731   1.438       .  S
C445        H450   1.086       .  S
C445        C446   1.360       .  D
C446       C1729   1.436       .  S
In451       O453   2.252       .  S
In451       O454   2.257       .  S
In451       O462   2.258       .  S
In451       O456   2.262       .  S
In451       O458   2.247       .  S
In451       O459   2.251       .  S
In451       O460   2.247       .  S
In451       O463   2.243       .  S
C452        O458   1.260       .  A
C452        O460   1.261       .  A
C452       C1769   1.475       .  S
O453        C461   1.258       .  A
O454        C461   1.262       .  A
C455        O462   1.258       .  A
C455        O456   1.259       .  A
C455       C1718   1.480       .  S
C457        O459   1.261       .  A
C457        O463   1.261       .  A
C457       C1737   1.478       .  S
C461       C1727   1.440       .  S
C464        C465   1.550       .  S
C464        C470   1.541       .  S
C464        C468   1.538       .  S
C464       C1728   1.472       .  S
C465        H472   1.083       .  S
C465        C466   1.372       .  D
C466        C467   1.530       .  S
C466       C1860   1.451       .  S
C467        C471   1.527       .  S
C467        C469   1.527       .  S
C467        H473   1.113       .  S
C468        H474   1.093       .  S
C468        C469   1.359       .  D
C469       C1716   1.436       .  S
C470        H475   1.088       .  S
C470        C471   1.362       .  D
C471       C1714   1.438       .  S
In476       O478   2.250       .  S
In476       O479   2.253       .  S
In476       O487   2.244       .  S
In476       O481   2.257       .  S
In476       O483   2.264       .  S
In476       O484   2.245       .  S
In476       O485   2.244       .  S
In476       O488   2.239       .  S
C477        O483   1.261       .  A
C477        O485   1.257       .  A
C477       C1702   1.478       .  S
O478        C486   1.260       .  A
O479        C486   1.261       .  A
C480        O487   1.259       .  A
C480        O481   1.260       .  A
C480       C1721   1.478       .  S
C482        O484   1.261       .  A
C482        O488   1.259       .  A
C482       C1692   1.472       .  S
C486       C1711   1.438       .  S
C489        C490   1.548       .  S
C489        C495   1.540       .  S
C489        C493   1.540       .  S
C489       C1712   1.470       .  S
C490        H497   1.086       .  S
C490        C491   1.370       .  D
C491        C492   1.530       .  S
C491       C1951   1.449       .  S
C492        C496   1.527       .  S
C492        C494   1.527       .  S
C492        H498   1.113       .  S
C493        H499   1.086       .  S
C493        C494   1.362       .  D
C494       C1688   1.435       .  S
C495        H500   1.086       .  S
C495        C496   1.360       .  D
C496       C1690   1.438       .  S
In501       O503   2.251       .  S
In501       O504   2.253       .  S
In501       O512   2.256       .  S
In501       O506   2.260       .  S
In501       O508   2.249       .  S
In501       O509   2.241       .  S
In501       O510   2.236       .  S
In501       O513   2.257       .  S
C502        O508   1.262       .  A
C502        O510   1.260       .  A
C502       C1695   1.474       .  S
O503        C511   1.257       .  A
O504        C511   1.260       .  A
C505        O512   1.258       .  A
C505        O506   1.259       .  A
C505       C1676   1.480       .  S
C507        O509   1.260       .  A
C507        O513   1.262       .  A
C507       C1666   1.479       .  S
C511       C1686   1.436       .  S
C514        C515   1.547       .  S
C514        C520   1.540       .  S
C514        C518   1.540       .  S
C514       C1685   1.468       .  S
C515        H522   1.086       .  S
C515        C516   1.369       .  D
C516        C517   1.531       .  S
C516       C1970   1.448       .  S
C517        C521   1.528       .  S
C517        C519   1.528       .  S
C517        H523   1.112       .  S
C518        H524   1.086       .  S
C518        C519   1.361       .  D
C519       C1664   1.438       .  S
C520        H525   1.086       .  S
C520        C521   1.361       .  D
C521       C1661   1.437       .  S
In526       O528   2.254       .  S
In526       O529   2.253       .  S
In526       O537   2.259       .  S
In526       O531   2.260       .  S
In526       O533   2.259       .  S
In526       O534   2.256       .  S
In526       O535   2.253       .  S
In526       O538   2.246       .  S
C527        O533   1.260       .  A
C527        O535   1.260       .  A
C527       C1837   1.481       .  S
O528        C536   1.262       .  A
O529        C536   1.259       .  A
C530        O537   1.258       .  A
C530        O531   1.258       .  A
C530       C1679   1.480       .  S
C532        O534   1.260       .  A
C532        O538   1.260       .  A
C532       C1795   1.478       .  S
C536       C1659   1.440       .  S
C539        C540   1.550       .  S
C539        C545   1.540       .  S
C539        C543   1.540       .  S
C539       C1660   1.472       .  S
C540        H547   1.086       .  S
C540        C541   1.372   1_545  D
C541        C542   1.530   1_565  S
C541       C2128   1.451       .  S
C542        C546   1.529       .  S
C542        C544   1.528       .  S
C542        H548   1.113   1_545  S
C543        H549   1.086       .  S
C543        C544   1.360       .  D
C544       C1655   1.436       .  S
C545        H550   1.086       .  S
C545        C546   1.361       .  D
C546       C1658   1.439       .  S
In551       O553   2.248       .  S
In551       O554   2.248       .  S
In551       O562   2.264       .  S
In551       O556   2.260       .  S
In551       O558   2.255       .  S
In551       O559   2.255       .  S
In551       O560   2.247       .  S
In551       O563   2.249       .  S
C552        O558   1.261       .  A
C552        O560   1.259       .  A
C552       C1644   1.478       .  S
O553        C561   1.258       .  A
O554        C561   1.261       .  A
C555        O562   1.261       .  A
C555        O556   1.259       .  A
C555       C2133   1.485       .  S
C557        O559   1.260       .  A
C557        O563   1.260       .  A
C557       C1705   1.478       .  S
C561       C1654   1.434       .  S
C564        C565   1.546       .  S
C564        C570   1.539       .  S
C564        C568   1.539       .  S
C564       C1653   1.466       .  S
C565        H572   1.086       .  S
C565        C566   1.369       .  D
C566        C567   1.530       .  S
C566       C1998   1.448       .  S
C567        C571   1.529       .  S
C567        C569   1.527       .  S
C567        H573   1.113       .  S
C568        H574   1.086       .  S
C568        C569   1.360       .  D
C569       C1640   1.434       .  S
C570        H575   1.086       .  S
C570        C571   1.361       .  D
C571       C1642   1.436       .  S
In576       O578   2.252       .  S
In576       O579   2.256       .  S
In576       O587   2.282       .  S
In576       O581   2.251       .  S
In576       O583   2.264       .  S
In576       O584   2.243       .  S
In576       O585   2.236       .  S
In576       O588   2.265       .  S
C577        O583   1.263       .  A
C577        O585   1.260       .  A
C577       C1669   1.479       .  S
O578        C586   1.258       .  A
O579        C586   1.260       .  A
C580        O587   1.260       .  A
C580        O581   1.259       .  A
C580       C1865   1.486       .  S
C582        O584   1.258       .  A
C582        O588   1.262       .  A
C582       C1647   1.478       .  S
C586       C1638   1.438       .  S
C589        C590   1.549       .  S
C589        C595   1.536       .  S
C589        C593   1.542       .  S
C589       C1637   1.469       .  S
C590        H597   1.086       .  S
C590        C591   1.371       .  D
C591        C592   1.531       .  S
C591       C2016   1.451       .  S
C592        C596   1.528       .  S
C592        C594   1.528       .  S
C592        H598   1.113       .  S
C593        H599   1.086       .  S
C593        C594   1.364       .  D
C594       C1635   1.441       .  S
C595        H600   1.087       .  S
C595        C596   1.357       .  D
C596       C1633   1.430       .  S
In601       O603   2.258       .  S
In601       O604   2.259       .  S
In601       O612   2.256       .  S
In601       O606   2.265   1_554  S
In601       O608   2.246       .  S
In601       O609   2.246   1_554  S
In601       O610   2.246       .  S
In601       O613   2.252   1_554  S
C602        O608   1.260       .  A
C602        O610   1.262       .  A
C602       C1622   1.476       .  S
O603        C611   1.258       .  A
O604        C611   1.262       .  A
C605        O612   1.259       .  A
C605        O606   1.258   1_554  A
C605       C1602   1.482       .  S
C607        O609   1.260       .  A
C607        O613   1.260       .  A
C607       C1612   1.476       .  S
C611       C1632   1.442       .  S
C614        C615   1.551       .  S
C614        C620   1.542       .  S
C614        C618   1.538   1_554  S
C614       C1631   1.474       .  S
C615        H622   1.086       .  S
C615        C616   1.373       .  D
C616        C617   1.530       .  S
C616       C1600   1.451       .  S
C617        C621   1.529       .  S
C617        C619   1.527   1_554  S
C617        H623   1.113       .  S
C618        H624   1.086       .  S
C618        C619   1.359       .  D
C619       C1894   1.435       .  S
C620        H625   1.086       .  S
C620        C621   1.362       .  D
C621       C1748   1.441       .  S
In626       O628   2.250       .  S
In626       O629   2.262       .  S
In626       O637   2.261       .  S
In626       O631   2.262   1_455  S
In626       O633   2.252   1_455  S
In626       O634   2.244       .  S
In626       O635   2.243       .  S
In626       O638   2.240       .  S
C627        O633   1.261       .  A
C627        O635   1.258   1_655  A
C627       C1615   1.475       .  S
O628        C636   1.259       .  A
O629        C636   1.257       .  A
C630        O637   1.257       .  A
C630        O631   1.258   1_455  A
C630       C1578   1.481       .  S
C632        O634   1.262       .  A
C632        O638   1.262       .  A
C632       C1588   1.475       .  S
C636       C1597   1.437       .  S
C639        C640   1.547       .  S
C639        C645   1.539   1_455  S
C639        C643   1.542       .  S
C639       C1598   1.469       .  S
C640        H647   1.086       .  S
C640        C641   1.370       .  D
C641        C642   1.532       .  S
C641       C1575   1.449       .  S
C642        C646   1.529   1_455  S
C642        C644   1.528       .  S
C642        H648   1.112       .  S
C643        H649   1.086       .  S
C643        C644   1.362       .  D
C644       C1636   1.440       .  S
C645        H650   1.087       .  S
C645        C646   1.360       .  D
C646       C2014   1.437       .  S
In651       O653   2.263       .  S
In651       O654   2.257       .  S
In651       O662   2.270       .  S
In651       O656   2.253   1_554  S
In651       O658   2.248   1_554  S
In651       O659   2.261       .  S
In651       O660   2.244   1_554  S
In651       O663   2.238       .  S
C652        O658   1.261       .  A
C652        O660   1.260       .  A
C652       C1591   1.475       .  S
O653        C661   1.258       .  A
O654        C661   1.260       .  A
C655        O662   1.260       .  A
C655        O656   1.258   1_554  A
C655       C1554   1.483       .  S
C657        O659   1.263       .  A
C657        O663   1.259       .  A
C657       C1564   1.478       .  S
C661       C1573   1.441       .  S
C664        C665   1.549       .  S
C664        C670   1.542   1_554  S
C664        C668   1.539       .  S
C664       C1574   1.473       .  S
C665        H672   1.089       .  S
C665        C666   1.371       .  D
C666        C667   1.531       .  S
C666       C1551   1.453       .  S
C667        C671   1.528   1_554  S
C667        C669   1.527       .  S
C667        H673   1.112       .  S
C668        H674   1.095       .  S
C668        C669   1.360       .  D
C669       C1715   1.435       .  S
C670        H675   1.080       .  S
C670        C671   1.362       .  D
C671       C1857   1.440       .  S
In676       O678   2.262       .  S
In676       O679   2.248       .  S
In676       O687   2.269   1_455  S
In676       O681   2.258       .  S
In676       O683   2.254       .  S
In676       O684   2.246   1_455  S
In676       O685   2.247       .  S
In676       O688   2.249   1_455  S
C677        O683   1.262       .  A
C677        O685   1.260       .  A
C677       C1567   1.479       .  S
O678        C686   1.263       .  A
O679        C686   1.257       .  A
C680        O687   1.259   1_455  A
C680        O681   1.258       .  A
C680       C1540   1.483       .  S
C682        O684   1.259       .  A
C682        O688   1.261       .  A
C682       C1625   1.476       .  S
C686       C1549   1.441       .  S
C689        C690   1.552       .  S
C689        C695   1.540       .  S
C689        C693   1.539   1_455  S
C689       C1550   1.473       .  S
C690        H697   1.086       .  S
C690        C691   1.373       .  D
C691        C692   1.529       .  S
C691       C1537   1.453       .  S
C692        C696   1.527       .  S
C692        C694   1.526   1_455  S
C692        H698   1.113       .  S
C693        H699   1.087       .  S
C693        C694   1.360       .  D
C694       C1950   1.435       .  S
C695        H700   1.086       .  S
C695        C696   1.362       .  D
C696       C1689   1.437       .  S
In701       O703   2.240       .  S
In701       O704   2.248       .  S
In701       O712   2.262       .  S
In701       O706   2.250       .  S
In701       O708   2.247       .  S
In701       O709   2.242       .  S
In701       O710   2.242       .  S
In701       O713   2.241       .  S
C702        O708   1.260       .  A
C702        O710   1.260       .  A
C702       C1526   1.475   1_565  S
O703        C711   1.258       .  A
O704        C711   1.262       .  A
C705        O712   1.260       .  A
C705        O706   1.258       .  A
C705       C1506   1.480       .  S
C707        O709   1.259       .  A
C707        O713   1.260       .  A
C707       C1516   1.472       .  S
C711       C1535   1.432       .  S
C714        C715   1.546       .  S
C714        C720   1.538       .  S
C714        C718   1.539       .  S
C714       C1536   1.463       .  S
C715        H722   1.086       .  S
C715        C716   1.369       .  D
C716        C717   1.532       .  S
C716       C1504   1.446       .  S
C717        C721   1.527       .  S
C717        C719   1.528       .  S
C717        H723   1.112       .  S
C718        H724   1.087       .  S
C718        C719   1.360       .  D
C719       C2098   1.435       .  S
C720        H725   1.087       .  S
C720        C721   1.359       .  D
C721       C1831   1.436       .  S
In726       O728   2.251       .  S
In726       O729   2.254       .  S
In726       O737   2.249       .  S
In726       O731   2.270   1_554  S
In726       O733   2.242   1_554  S
In726       O734   2.254       .  S
In726       O735   2.241   1_554  S
In726       O738   2.238       .  S
C727        O733   1.261       .  A
C727        O735   1.260       .  A
C727       C1519   1.473       .  S
O728        C736   1.261       .  A
O729        C736   1.258       .  A
C730        O737   1.258       .  A
C730        O731   1.259   1_554  A
C730       C1605   1.481       .  S
C732        O734   1.261       .  A
C732        O738   1.259       .  A
C732       C1492   1.474       .  S
C736       C1501   1.438       .  S
C739        C740   1.546       .  S
C739        C745   1.540   1_554  S
C739        C743   1.540       .  S
C739       C1502   1.469       .  S
C740        H747   1.086       .  S
C740        C741   1.369       .  D
C741        C742   1.534       .  S
C741       C1489   1.450       .  S
C742        C746   1.529   1_554  S
C742        C744   1.529       .  S
C742        H748   1.112       .  S
C743        H749   1.087       .  S
C743        C744   1.361       .  D
C744       C1732   1.438       .  S
C745        H750   1.086       .  S
C745        C746   1.361       .  D
C746       C1876   1.439       .  S
In751       O753   2.251       .  S
In751       O754   2.250       .  S
In751       O762   2.264   1_554  S
In751       O756   2.261       .  S
In751       O758   2.234       .  S
In751       O759   2.248   1_554  S
In751       O760   2.248       .  S
In751       O763   2.259   1_554  S
C752        O758   1.261       .  A
C752        O760   1.261       .  A
C752       C1478   1.473       .  S
O753        C761   1.261       .  A
O754        C761   1.259       .  A
C755        O762   1.259   1_554  A
C755        O756   1.258       .  A
C755       C1468   1.483       .  S
C757        O759   1.258       .  A
C757        O763   1.259       .  A
C757       C1529   1.477       .  S
C761       C1487   1.437       .  S
C764        C765   1.547       .  S
C764        C770   1.542       .  S
C764        C768   1.539   1_554  S
C764       C1488   1.470       .  S
C765        H772   1.086       .  S
C765        C766   1.369       .  D
C766        C767   1.529       .  S
C766       C1465   1.447       .  S
C767        C771   1.527       .  S
C767        C769   1.526   1_554  S
C767        H773   1.113       .  S
C768        H774   1.086       .  S
C768        C769   1.360       .  D
C769       C1911   1.435       .  S
C770        H775   1.086       .  S
C770        C771   1.363       .  D
C771       C1763   1.438       .  S
In776       O778   2.245       .  S
In776       O779   2.235       .  S
In776       O787   2.249       .  S
In776       O781   2.251       .  S
In776       O783   2.252       .  S
In776       O784   2.252       .  S
In776       O785   2.238       .  S
In776       O788   2.239       .  S
C777        O783   1.260       .  A
C777        O785   1.259       .  A
C777       C1495   1.474       .  S
O778        C786   1.260       .  A
O779        C786   1.260       .  A
C780        O787   1.258       .  A
C780        O781   1.258       .  A
C780       C1454   1.475       .  S
C782        O784   1.260       .  A
C782        O788   1.260       .  A
C782       C1481   1.475   1_565  S
C786       C1463   1.431       .  S
C789        C790   1.543       .  S
C789        C795   1.541       .  S
C789        C793   1.540       .  S
C789       C1464   1.463       .  S
C790        H797   1.086       .  S
C790        C791   1.366       .  D
C791        C792   1.531       .  S
C791       C1451   1.442       .  S
C792        C796   1.527       .  S
C792        C794   1.528       .  S
C792        H798   1.112       .  S
C793        H799   1.086       .  S
C793        C794   1.360       .  D
C794       C1790   1.437       .  S
C795        H800   1.086       .  S
C795        C796   1.362       .  D
C796       C2052   1.438       .  S
In801       O803   2.253       .  S
In801       O804   2.241       .  S
In801       O812   2.265       .  S
In801       O806   2.267   1_554  S
In801       O808   2.264       .  S
In801       O809   2.261   1_554  S
In801       O810   2.243       .  S
In801       O813   2.253   1_554  S
C802        O808   1.262       .  A
C802        O810   1.259       .  A
C802       C1440   1.480       .  S
O803        C811   1.262       .  A
O804        C811   1.258       .  A
C805        O812   1.258       .  A
C805        O806   1.260   1_554  A
C805       C1557   1.485       .  S
C807        O809   1.259       .  A
C807        O813   1.261       .  A
C807       C1430   1.481       .  S
C811       C1449   1.435       .  S
C814        C815   1.549       .  S
C814        C820   1.539       .  S
C814        C818   1.539   1_554  S
C814       C1450   1.467       .  S
C815        H822   1.086       .  S
C815        C816   1.371       .  D
C816        C817   1.528       .  S
C816       C1490   1.448       .  S
C817        C821   1.526       .  S
C817        C819   1.526   1_554  S
C817        H823   1.112       .  S
C818        H824   1.087       .  S
C818        C819   1.360       .  D
C819       C1874   1.434       .  S
C820        H825   1.087       .  S
C820        C821   1.360       .  D
C821       C1730   1.435       .  S
In826       O828   2.240       .  S
In826       O829   2.247       .  S
In826       O837   2.256       .  S
In826       O831   2.273       .  S
In826       O833   2.268       .  S
In826       O834   2.245       .  S
In826       O835   2.239       .  S
In826       O838   2.244       .  S
C827        O833   1.261       .  A
C827        O835   1.260       .  A
C827       C1433   1.481       .  S
O828        C836   1.258       .  A
O829        C836   1.262       .  A
C830        O837   1.258       .  A
C830        O831   1.258       .  A
C830       C1408   1.484       .  S
C832        O834   1.259   1_545  A
C832        O838   1.261   1_545  A
C832       C1418   1.474       .  S
C836       C1427   1.432       .  S
C839        C840   1.546       .  S
C839        C845   1.537       .  S
C839        C843   1.540       .  S
C839       C1428   1.463       .  S
C840        H847   1.086       .  S
C840        C841   1.369       .  D
C841        C842   1.531       .  S
C841       C1503   1.446       .  S
C842        C846   1.528       .  S
C842        C844   1.529       .  S
C842        H848   1.112       .  S
C843        H849   1.086       .  S
C843        C844   1.361       .  D
C844       C1829   1.438   1_565  S
C845        H850   1.087       .  S
C845        C846   1.358       .  D
C846       C2096   1.434       .  S
In851       O853   2.254       .  S
In851       O854   2.249       .  S
In851       O862   2.266   1_455  S
In851       O856   2.261       .  S
In851       O858   2.254       .  S
In851       O859   2.251   1_455  S
In851       O860   2.248       .  S
In851       O863   2.242   1_455  S
C852        O858   1.261       .  A
C852        O860   1.260       .  A
C852       C1396   1.480       .  S
O853        C861   1.262       .  A
O854        C861   1.258       .  A
C855        O862   1.259   1_455  A
C855        O856   1.259       .  A
C855       C1376   1.483       .  S
C857        O859   1.259       .  A
C857        O863   1.260       .  A
C857       C1386   1.475       .  S
C861       C1405   1.438       .  S
C864        C865   1.549       .  S
C864        C870   1.536       .  S
C864        C868   1.542   1_455  S
C864       C1406   1.469       .  S
C865        H872   1.086       .  S
C865        C866   1.371       .  D
C866        C867   1.530       .  S
C866       C1576   1.449       .  S
C867        C871   1.528       .  S
C867        C869   1.528   1_455  S
C867        H873   1.113       .  S
C868        H874   1.086       .  S
C868        C869   1.363       .  D
C869       C2011   1.441       .  S
C870        H875   1.087       .  S
C870        C871   1.357       .  D
C871       C1634   1.430       .  S
In876       O878   2.243       .  S
In876       O879   2.254       .  S
In876       O887   2.264   1_554  S
In876       O881   2.259       .  S
In876       O883   2.259   1_554  S
In876       O884   2.247       .  S
In876       O885   2.236   1_554  S
In876       O888   2.243       .  S
C877        O883   1.260       .  A
C877        O885   1.259       .  A
C877       C1389   1.475       .  S
O878        C886   1.258       .  A
O879        C886   1.263       .  A
C880        O887   1.259   1_554  A
C880        O881   1.258       .  A
C880       C1471   1.482       .  S
C882        O884   1.260       .  A
C882        O888   1.260       .  A
C882       C1364   1.475       .  S
C886       C1374   1.436       .  S
C889        C890   1.549       .  S
C889        C895   1.538   1_554  S
C889        C893   1.540       .  S
C889       C1373   1.468       .  S
C890        H897   1.086       .  S
C890        C891   1.371       .  D
C891        C892   1.532       .  S
C891       C1599   1.452       .  S
C892        C896   1.529   1_554  S
C892        C894   1.528       .  S
C892        H898   1.113       .  S
C893        H899   1.086       .  S
C893        C894   1.361       .  D
C894       C1745   1.435       .  S
C895        H900   1.086       .  S
C895        C896   1.359       .  D
C896       C1892   1.437       .  S
In901       O903   2.252       .  S
In901       O904   2.257       .  S
In901       O912   2.257       .  S
In901       O906   2.274   1_554  S
In901       O908   2.252   1_554  S
In901       O909   2.265       .  S
In901       O910   2.236   1_554  S
In901       O913   2.236       .  S
C902        O908   1.262       .  A
C902        O910   1.261       .  A
C902       C1421   1.476       .  S
O903        C911   1.260       .  A
O904        C911   1.257       .  A
C905        O912   1.259       .  A
C905        O906   1.260   1_554  A
C905       C1342   1.487       .  S
C907        O909   1.261       .  A
C907        O913   1.258       .  A
C907       C1352   1.477       .  S
C911       C1361   1.437       .  S
C914        C915   1.547       .  S
C914        C920   1.539   1_554  S
C914        C918   1.541       .  S
C914       C1362   1.469       .  S
C915        H922   1.086       .  S
C915        C916   1.369       .  D
C916        C917   1.531       .  S
C916       C1466   1.448       .  S
C917        C921   1.528   1_554  S
C917        C919   1.529       .  S
C917        H923   1.113       .  S
C918        H924   1.086       .  S
C918        C919   1.362       .  D
C919       C1762   1.439       .  S
C920        H925   1.086       .  S
C920        C921   1.360       .  D
C921       C1910   1.436       .  S
In926       O928   2.254       .  S
In926       O929   2.254       .  S
In926       O937   2.255       .  S
In926       O931   2.260       .  S
In926       O933   2.232       .  S
In926       O934   2.254       .  S
In926       O935   2.257   1_565  S
In926       O938   2.254       .  S
C927        O933   1.259       .  A
C927        O935   1.262   1_565  A
C927       C1355   1.475   1_565  S
O928        C936   1.257       .  A
O929        C936   1.259       .  A
C930        O937   1.260       .  A
C930        O931   1.259       .  A
C930       C1330   1.481       .  S
C932        O934   1.261       .  A
C932        O938   1.261       .  A
C932       C1443   1.480       .  S
C936       C1340   1.435       .  S
C939        C940   1.544       .  S
C939        C945   1.543       .  S
C939        C943   1.539       .  S
C939       C1339   1.467       .  S
C940        H947   1.086       .  S
C940        C941   1.366       .  D
C941        C942   1.531       .  S
C941       C1452   1.443       .  S
C942        C946   1.527       .  S
C942        C944   1.527       .  S
C942        H948   1.113       .  S
C943        H949   1.087       .  S
C943        C944   1.360       .  D
C944       C2049   1.436       .  S
C945        H950   1.086   1_565  S
C945        C946   1.364       .  D
C946       C1788   1.439   1_565  S
In951       O953   2.265   1_556  S
In951       O954   2.265       .  S
In951       O962   2.262   1_556  S
In951       O956   2.277       .  S
In951       O958   2.267   1_556  S
In951       O959   2.258       .  S
In951       O960   2.234   1_556  S
In951       O963   2.251       .  S
C952        O958   1.263       .  A
C952        O960   1.259       .  A
C952       C1318   1.478       .  S
O953        C961   1.257       .  A
O954        C961   1.260   1_556  A
C955        O962   1.259   1_556  A
C955        O956   1.260       .  A
C955       C1345   1.488       .  S
C957        O959   1.261       .  A
C957        O963   1.260       .  A
C957       C1399   1.479       .  S
C961       C1327   1.444       .  S
C964        C965   1.551       .  S
C964        C970   1.540       .  S
C964        C968   1.541   1_554  S
C964       C1328   1.476       .  S
C965        H972   1.083       .  S
C965        C966   1.373       .  D
C966        C967   1.530       .  S
C966       C1552   1.452       .  S
C967        C971   1.529       .  S
C967        C969   1.527   1_554  S
C967        H973   1.113       .  S
C968        H974   1.083       .  S
C968        C969   1.361       .  D
C969       C1856   1.437       .  S
C970        H975   1.096       .  S
C970        C971   1.360       .  D
C971       C1713   1.439       .  S
In976       O978   2.256       .  S
In976       O979   2.263       .  S
In976       O987   2.265       .  S
In976       O981   2.255   1_455  S
In976       O983   2.249   1_455  S
In976       O984   2.264       .  S
In976       O985   2.247   1_455  S
In976       O988   2.238       .  S
C977        O983   1.261       .  A
C977        O985   1.260       .  A
C977       C1367   1.476       .  S
O978        C986   1.261       .  A
O979        C986   1.259       .  A
C980        O987   1.259       .  A
C980        O981   1.259   1_455  A
C980       C1306   1.482       .  S
C982        O984   1.262       .  A
C982        O988   1.258       .  A
C982       C1321   1.478       .  S
C986       C1316   1.443       .  S
C989        C990   1.550       .  S
C989        C995   1.543   1_455  S
C989        C993   1.538       .  S
C989       C1315   1.474       .  S
C990        H997   1.086       .  S
C990        C991   1.372       .  D
C991        C992   1.533       .  S
C991       C1538   1.454       .  S
C992        C996   1.529   1_455  S
C992        C994   1.528       .  S
C992        H998   1.112       .  S
C993        H999   1.087       .  S
C993        C994   1.358       .  D
C994       C1687   1.436       .  S
C995       H1000   1.086       .  S
C995        C996   1.363       .  D
C996       C1948   1.442       .  S
In1001     O1003   2.249       .  S
In1001     O1004   2.250       .  S
In1001     O1012   2.267       .  S
In1001     O1006   2.259       .  S
In1001     O1008   2.237       .  S
In1001     O1009   2.251   1_565  S
In1001     O1010   2.267       .  S
In1001     O1013   2.240       .  S
C1002      O1008   1.258       .  A
C1002      O1010   1.261       .  A
C1002      C1287   1.478       .  S
O1003      C1011   1.261       .  A
O1004      C1011   1.258       .  A
C1005      O1012   1.258       .  A
C1005      O1006   1.258       .  A
C1005      C1333   1.482       .  S
C1007      O1009   1.261       .  A
C1007      O1013   1.261   1_545  A
C1007      C1294   1.476       .  S
C1011      C1303   1.435       .  S
C1014      C1015   1.547       .  S
C1014      C1020   1.539       .  S
C1014      C1018   1.538       .  S
C1014      C1304   1.467       .  S
C1015      H1022   1.086       .  S
C1015      C1016   1.370       .  D
C1016      C1017   1.533       .  S
C1016      C1282   1.451       .  S
C1017      C1021   1.530       .  S
C1017      C1019   1.530       .  S
C1017      H1023   1.113       .  S
C1018      H1024   1.087   1_565  S
C1018      C1019   1.360       .  D
C1019      C1656   1.436   1_565  S
C1020      H1025   1.086       .  S
C1020      C1021   1.360       .  D
C1021      C2124   1.438       .  S
In1026     O1028   2.238       .  S
In1026     O1029   2.249       .  S
In1026     O1037   2.250   1_455  S
In1026     O1031   2.266       .  S
In1026     O1033   2.245       .  S
In1026     O1034   2.259   1_455  S
In1026     O1035   2.253       .  S
In1026     O1038   2.244   1_455  S
C1027      O1033   1.259       .  A
C1027      O1035   1.261       .  A
C1027      C1297   1.476       .  S
O1028      C1036   1.258       .  A
O1029      C1036   1.262       .  A
C1030      O1037   1.259   1_455  A
C1030      O1031   1.260       .  A
C1030      C1309   1.482       .  S
C1032      O1034   1.259       .  A
C1032      O1038   1.259       .  A
C1032      C1270   1.477       .  S
C1036      C1279   1.432       .  S
C1039      C1040   1.546       .  S
C1039      C1045   1.539       .  S
C1039      C1043   1.538   1_455  S
C1039      C1280   1.464       .  S
C1040      H1047   1.086       .  S
C1040      C1041   1.369       .  D
C1041      C1042   1.532       .  S
C1041      C1268   1.448       .  S
C1042      C1046   1.528       .  S
C1042      C1044   1.528   1_455  S
C1042      H1048   1.112       .  S
C1043      H1049   1.087       .  S
C1043      C1044   1.359       .  D
C1044      C1965   1.434       .  S
C1045      H1050   1.087       .  S
C1045      C1046   1.360       .  D
C1046      C1662   1.437       .  S
In1051     O1053   2.256       .  S
In1051     O1054   2.252       .  S
In1051     O1062   2.256       .  S
In1051     O1056   2.260   1_455  S
In1051     O1058   2.243   1_455  S
In1051     O1059   2.260       .  S
In1051     O1060   2.252   1_455  S
In1051     O1063   2.237       .  S
C1052      O1058   1.259       .  A
C1052      O1060   1.260       .  A
C1052      C1256   1.474       .  S
O1053      C1061   1.260       .  A
O1054      C1061   1.257       .  A
C1055      O1062   1.260       .  A
C1055      O1056   1.260   1_455  A
C1055      C1543   1.483       .  S
C1057      O1059   1.262       .  A
C1057      O1063   1.260       .  A
C1057      C1284   1.478       .  S
C1061      C1265   1.438       .  S
C1064      C1065   1.550       .  S
C1064      C1070   1.539   1_455  S
C1064      C1068   1.538       .  S
C1064      C1266   1.470       .  S
C1065      H1072   1.086       .  S
C1065      C1066   1.372       .  D
C1066      C1067   1.531       .  S
C1066      C1253   1.454       .  S
C1067      C1071   1.529   1_455  S
C1067      C1069   1.529       .  S
C1067      H1073   1.113       .  S
C1068      H1074   1.086       .  S
C1068      C1069   1.360       .  D
C1069      C1639   1.435       .  S
C1070      H1075   1.087       .  S
C1070      C1071   1.360       .  D
C1071      C1994   1.437       .  S
In1076     O1078   2.246       .  S
In1076     O1079   2.241       .  S
In1076     O1087   2.250       .  S
In1076     O1081   2.251       .  S
In1076     O1083   2.259   1_565  S
In1076     O1084   2.235       .  S
In1076     O1085   2.236       .  S
In1076     O1088   2.252       .  S
C1077      O1083   1.261       .  A
C1077      O1085   1.259   1_545  A
C1077      C1273   1.477       .  S
O1078      C1086   1.261       .  A
O1079      C1086   1.258       .  A
C1080      O1087   1.259       .  A
C1080      O1081   1.260       .  A
C1080      C1457   1.477       .  S
C1082      O1084   1.258       .  A
C1082      O1088   1.261       .  A
C1082      C1259   1.473       .  S
C1086      C1251   1.431       .  S
C1089      C1090   1.547       .  S
C1089      C1095   1.536       .  S
C1089      C1093   1.541       .  S
C1089      C1252   1.463       .  S
C1090      H1097   1.086       .  S
C1090      C1091   1.369       .  D
C1091      C1092   1.531       .  S
C1091      C1250   1.449       .  S
C1092      C1096   1.529       .  S
C1092      C1094   1.529       .  S
C1092      H1098   1.113       .  S
C1093      H1099   1.086       .  S
C1093      C1094   1.362       .  D
C1094      C2068   1.439       .  S
C1095      H1100   1.087   1_565  S
C1095      C1096   1.357       .  D
C1096      C1814   1.431   1_565  S
In1101     O1103   2.249       .  S
In1101     O1104   2.255       .  S
In1101     O1112   2.261       .  S
In1101     O1106   2.258       .  S
In1101     O1108   2.253       .  S
In1101     O1109   2.245       .  S
In1101     O1110   2.251       .  S
In1101     O1113   2.259       .  S
C1102      O1108   1.260       .  A
C1102      O1110   1.261       .  A
C1102      C1228   1.480       .  S
O1103      C1111   1.262       .  A
O1104      C1111   1.260       .  A
C1105      O1112   1.258       .  A
C1105      O1106   1.257       .  A
C1105      C1509   1.479       .  S
C1107      O1109   1.259   1_545  A
C1107      O1113   1.261   1_545  A
C1107      C1238   1.477       .  S
C1111      C1247   1.439       .  S
C1114      C1115   1.549       .  S
C1114      C1120   1.540       .  S
C1114      C1118   1.541       .  S
C1114      C1248   1.471       .  S
C1115      H1122   1.086       .  S
C1115      C1116   1.371       .  D
C1116      C1117   1.529       .  S
C1116      C1249   1.449       .  S
C1117      C1121   1.528       .  S
C1117      C1119   1.527       .  S
C1117      H1123   1.113       .  S
C1118      H1124   1.086       .  S
C1118      C1119   1.361       .  D
C1119      C1816   1.437       .  S
C1120      H1125   1.086       .  S
C1120      C1121   1.360       .  D
C1121      C2069   1.437       .  S
In1126     O1128   2.261       .  S
In1126     O1129   2.257       .  S
In1126     O1137   2.270   1_455  S
In1126     O1131   2.262       .  S
In1126     O1133   2.245       .  S
In1126     O1134   2.260   1_455  S
In1126     O1135   2.247       .  S
In1126     O1138   2.244   1_455  S
C1127      O1133   1.261       .  A
C1127      O1135   1.261       .  A
C1127      C1216   1.476       .  S
O1128      C1136   1.262       .  A
O1129      C1136   1.258       .  A
C1130      O1137   1.259   1_455  A
C1130      O1131   1.257       .  A
C1130      C1581   1.483       .  S
C1132      O1134   1.261       .  A
C1132      O1138   1.259       .  A
C1132      C1231   1.479       .  S
C1136      C1226   1.442       .  S
C1139      C1140   1.553       .  S
C1139      C1145   1.539       .  S
C1139      C1143   1.539   1_455  S
C1139      C1225   1.473       .  S
C1140      H1147   1.086       .  S
C1140      C1141   1.374       .  D
C1141      C1142   1.529       .  S
C1141      C1254   1.454       .  S
C1142      C1146   1.528       .  S
C1142      C1144   1.528   1_455  S
C1142      H1148   1.113       .  S
C1143      H1149   1.086       .  S
C1143      C1144   1.359       .  D
C1144      C1996   1.436       .  S
C1145      H1150   1.087       .  S
C1145      C1146   1.360       .  D
C1146      C1641   1.436       .  S
In1151     O1153   2.259       .  S
In1151     O1154   2.253       .  S
In1151     O1162   2.258   1_455  S
In1151     O1156   2.261       .  S
In1151     O1158   2.247   1_455  S
In1151     O1159   2.260       .  S
In1151     O1160   2.245   1_455  S
In1151     O1163   2.244       .  S
C1152      O1158   1.262       .  A
C1152      O1160   1.261       .  A
C1152      C1241   1.477       .  S
O1153      C1161   1.259       .  A
O1154      C1161   1.260       .  A
C1155      O1162   1.259   1_455  A
C1155      O1156   1.260       .  A
C1155      C1379   1.481       .  S
C1157      O1159   1.260       .  A
C1157      O1163   1.258       .  A
C1157      C1204   1.477       .  S
C1161      C1214   1.440       .  S
C1164      C1165   1.548       .  S
C1164      C1170   1.541   1_455  S
C1164      C1168   1.541       .  S
C1164      C1213   1.471       .  S
C1165      H1172   1.086       .  S
C1165      C1166   1.370       .  D
C1166      C1167   1.529       .  S
C1166      C1267   1.447       .  S
C1167      C1171   1.526   1_455  S
C1167      C1169   1.526       .  S
C1167      H1173   1.113       .  S
C1168      H1174   1.086       .  S
C1168      C1169   1.362       .  D
C1169      C1663   1.438       .  S
C1170      H1175   1.086       .  S
C1170      C1171   1.361       .  D
C1171      C1967   1.436       .  S
In1176     O1178   2.263       .  S
In1176     O1179   2.259       .  S
In1176     O1187   2.254       .  S
In1176     O1181   2.276       .  S
In1176     O1183   2.258       .  S
In1176     O1184   2.255       .  S
In1176     O1185   2.241       .  S
In1176     O1188   2.244       .  S
C1177      O1183   1.261       .  A
C1177      O1185   1.258       .  A
C1177      C1207   1.477   1_565  S
O1178      C1186   1.259       .  A
O1179      C1186   1.261       .  A
C1180      O1187   1.257       .  A
C1180      O1181   1.259       .  A
C1180      C1411   1.484       .  S
C1182      O1184   1.262       .  A
C1182      O1188   1.260       .  A
C1182      C1219   1.477       .  S
C1186      C1201   1.444       .  S
C1189      C1190   1.551       .  S
C1189      C1195   1.543       .  S
C1189      C1193   1.541       .  S
C1189      C1202   1.477       .  S
C1190      H1197   1.086       .  S
C1190      C1191   1.372       .  D
C1191      C1192   1.527       .  S
C1191      C1281   1.450       .  S
C1192      C1196   1.525       .  S
C1192      C1194   1.525       .  S
C1192      H1198   1.113       .  S
C1193      H1199   1.086       .  S
C1193      C1194   1.361       .  D
C1194      C2126   1.435       .  S
C1195      H1200   1.086       .  S
C1195      C1196   1.363       .  D
C1196      C1657   1.438       .  S
C1201      C1202   1.211       .  T
C1203      C1204   1.405       .  A
C1203      C1208   1.400       .  A
C1203      H1209   1.083       .  S
C1204      C1205   1.404       .  A
C1205      C1206   1.396       .  A
C1205      H1210   1.083       .  S
C1206      C1207   1.405       .  A
C1206      H1211   1.083       .  S
C1207      C1208   1.405       .  A
C1208      H1212   1.083       .  S
C1213      C1214   1.208       .  T
C1215      C1216   1.405       .  A
C1215      C1220   1.398       .  A
C1215      H1221   1.083       .  S
C1216      C1217   1.404       .  A
C1217      C1218   1.398       .  A
C1217      H1222   1.083       .  S
C1218      C1219   1.404       .  A
C1218      H1223   1.083       .  S
C1219      C1220   1.405       .  A
C1220      H1224   1.083       .  S
C1225      C1226   1.210       .  T
C1227      C1228   1.406       .  A
C1227      C1232   1.400       .  A
C1227      H1233   1.083       .  S
C1228      C1229   1.404       .  A
C1229      C1230   1.398       .  A
C1229      H1234   1.083       .  S
C1230      C1231   1.405       .  A
C1230      H1235   1.083       .  S
C1231      C1232   1.405       .  A
C1232      H1236   1.083       .  S
C1237      C1238   1.404       .  A
C1237      C1242   1.400       .  A
C1237      H1243   1.083       .  S
C1238      C1239   1.405       .  A
C1239      C1240   1.397       .  A
C1239      H1244   1.083       .  S
C1240      C1241   1.404       .  A
C1240      H1245   1.083       .  S
C1241      C1242   1.406       .  A
C1242      H1246   1.083       .  S
C1247      C1248   1.208       .  T
C1249      C1250   1.211       .  T
C1251      C1252   1.204       .  T
C1253      C1254   1.214       .  T
C1255      C1256   1.405       .  A
C1255      C1260   1.399       .  A
C1255      H1261   1.083       .  S
C1256      C1257   1.403       .  A
C1257      C1258   1.395       .  A
C1257      H1262   1.083       .  S
C1258      C1259   1.404       .  A
C1258      H1263   1.084       .  S
C1259      C1260   1.404       .  A
C1260      H1264   1.083       .  S
C1265      C1266   1.208       .  T
C1267      C1268   1.210       .  T
C1269      C1270   1.403       .  A
C1269      C1274   1.395       .  A
C1269      H1275   1.083       .  S
C1270      C1271   1.406       .  A
C1271      C1272   1.401       .  A
C1271      H1276   1.083       .  S
C1272      C1273   1.405       .  A
C1272      H1277   1.083       .  S
C1273      C1274   1.404       .  A
C1274      H1278   1.083       .  S
C1279      C1280   1.204       .  T
C1281      C1282   1.212       .  T
C1283      C1284   1.406       .  A
C1283      C1288   1.402       .  A
C1283      H1289   1.083       .  S
C1284      C1285   1.404       .  A
C1285      C1286   1.395       .  A
C1285      H1290   1.083       .  S
C1286      C1287   1.404       .  A
C1286      H1291   1.083       .  S
C1287      C1288   1.405       .  A
C1288      H1292   1.083       .  S
C1293      C1294   1.404       .  A
C1293      C1298   1.398       .  A
C1293      H1299   1.083       .  S
C1294      C1295   1.404       .  A
C1295      C1296   1.398       .  A
C1295      H1300   1.083       .  S
C1296      C1297   1.404       .  A
C1296      H1301   1.083       .  S
C1297      C1298   1.406       .  A
C1298      H1302   1.083       .  S
C1303      C1304   1.206       .  T
C1305      C1306   1.404   1_655  A
C1305      C1310   1.398       .  A
C1305      H1311   1.083       .  S
C1306      C1307   1.406       .  A
C1307      C1308   1.403       .  A
C1307      H1312   1.083       .  S
C1308      C1309   1.406       .  A
C1308      H1313   1.083       .  S
C1309      C1310   1.405   1_455  A
C1310      H1314   1.083       .  S
C1315      C1316   1.210       .  T
C1317      C1318   1.405       .  A
C1317      C1322   1.402       .  A
C1317      H1323   1.083       .  S
C1318      C1319   1.404       .  A
C1319      C1320   1.395       .  A
C1319      H1324   1.083       .  S
C1320      C1321   1.404       .  A
C1320      H1325   1.083       .  S
C1321      C1322   1.405       .  A
C1322      H1326   1.083       .  S
C1327      C1328   1.211       .  T
C1329      C1330   1.406       .  A
C1329      C1334   1.402       .  A
C1329      H1335   1.083   1_565  S
C1330      C1331   1.404       .  A
C1331      C1332   1.399       .  A
C1331      H1336   1.083       .  S
C1332      C1333   1.405       .  A
C1332      H1337   1.083       .  S
C1333      C1334   1.406       .  A
C1334      H1338   1.083   1_565  S
C1339      C1340   1.206       .  T
C1341      C1342   1.407   1_556  A
C1341      C1346   1.405       .  A
C1341      H1347   1.083       .  S
C1342      C1343   1.405       .  A
C1343      C1344   1.400       .  A
C1343      H1348   1.083       .  S
C1344      C1345   1.405   1_554  A
C1344      H1349   1.084       .  S
C1345      C1346   1.407       .  A
C1346      H1350   1.083       .  S
C1351      C1352   1.404       .  A
C1351      C1356   1.394       .  A
C1351      H1357   1.084       .  S
C1352      C1353   1.405       .  A
C1353      C1354   1.401       .  A
C1353      H1358   1.082       .  S
C1354      C1355   1.405       .  A
C1354      H1359   1.083       .  S
C1355      C1356   1.404       .  A
C1356      H1360   1.083   1_545  S
C1361      C1362   1.207       .  T
C1363      C1364   1.404       .  A
C1363      C1368   1.398       .  A
C1363      H1369   1.083       .  S
C1364      C1365   1.404       .  A
C1365      C1366   1.398       .  A
C1365      H1370   1.083       .  S
C1366      C1367   1.405       .  A
C1366      H1371   1.083       .  S
C1367      C1368   1.404       .  A
C1368      H1372   1.083       .  S
C1373      C1374   1.207       .  T
C1375      C1376   1.406   1_655  A
C1375      C1380   1.401       .  A
C1375      H1381   1.083       .  S
C1376      C1377   1.405       .  A
C1377      C1378   1.400       .  A
C1377      H1382   1.083       .  S
C1378      C1379   1.404       .  A
C1378      H1383   1.083       .  S
C1379      C1380   1.406   1_455  A
C1380      H1384   1.083       .  S
C1385      C1386   1.406       .  A
C1385      C1390   1.400       .  A
C1385      H1391   1.083       .  S
C1386      C1387   1.403       .  A
C1387      C1388   1.395       .  A
C1387      H1392   1.083       .  S
C1388      C1389   1.404       .  A
C1388      H1393   1.082       .  S
C1389      C1390   1.405       .  A
C1390      H1394   1.083       .  S
C1395      C1396   1.405       .  A
C1395      C1400   1.399       .  A
C1395      H1401   1.083       .  S
C1396      C1397   1.405       .  A
C1397      C1398   1.400       .  A
C1397      H1402   1.083       .  S
C1398      C1399   1.404       .  A
C1398      H1403   1.083       .  S
C1399      C1400   1.405       .  A
C1400      H1404   1.083       .  S
C1405      C1406   1.207       .  T
C1407      C1408   1.404       .  A
C1407      C1412   1.398       .  A
C1407      H1413   1.083       .  S
C1408      C1409   1.407       .  A
C1409      C1410   1.404       .  A
C1409      H1414   1.083       .  S
C1410      C1411   1.406       .  A
C1410      H1415   1.083   1_565  S
C1411      C1412   1.405       .  A
C1412      H1416   1.083       .  S
C1417      C1418   1.405       .  A
C1417      C1422   1.399       .  A
C1417      H1423   1.083       .  S
C1418      C1419   1.403       .  A
C1419      C1420   1.396       .  A
C1419      H1424   1.083       .  S
C1420      C1421   1.405       .  A
C1420      H1425   1.083       .  S
C1421      C1422   1.404       .  A
C1422      H1426   1.083       .  S
C1427      C1428   1.204       .  T
C1429      C1430   1.408       .  A
C1429      C1434   1.403       .  A
C1429      H1435   1.083       .  S
C1430      C1431   1.403       .  A
C1431      C1432   1.396       .  A
C1431      H1436   1.083       .  S
C1432      C1433   1.404       .  A
C1432      H1437   1.083       .  S
C1433      C1434   1.406       .  A
C1434      H1438   1.083       .  S
C1439      C1440   1.405       .  A
C1439      C1444   1.401       .  A
C1439      H1445   1.083       .  S
C1440      C1441   1.405       .  A
C1441      C1442   1.398       .  A
C1441      H1446   1.084       .  S
C1442      C1443   1.404       .  A
C1442      H1447   1.083       .  S
C1443      C1444   1.406       .  A
C1444      H1448   1.083       .  S
C1449      C1450   1.206       .  T
C1451      C1452   1.207       .  T
C1453      C1454   1.404       .  A
C1453      C1458   1.397       .  A
C1453      H1459   1.083   1_565  S
C1454      C1455   1.405       .  A
C1455      C1456   1.398       .  A
C1455      H1460   1.083       .  S
C1456      C1457   1.405       .  A
C1456      H1461   1.083       .  S
C1457      C1458   1.404       .  A
C1458      H1462   1.083   1_565  S
C1463      C1464   1.203       .  T
C1465      C1466   1.210       .  T
C1467      C1468   1.406       .  A
C1467      C1472   1.401       .  A
C1467      H1473   1.083       .  S
C1468      C1469   1.405   1_554  A
C1469      C1470   1.401       .  A
C1469      H1474   1.083       .  S
C1470      C1471   1.405   1_556  A
C1470      H1475   1.083       .  S
C1471      C1472   1.406       .  A
C1472      H1476   1.083       .  S
C1477      C1478   1.405       .  A
C1477      C1482   1.399       .  A
C1477      H1483   1.083       .  S
C1478      C1479   1.403       .  A
C1479      C1480   1.395       .  A
C1479      H1484   1.083       .  S
C1480      C1481   1.403       .  A
C1480      H1485   1.083       .  S
C1481      C1482   1.405       .  A
C1482      H1486   1.083       .  S
C1487      C1488   1.207       .  T
C1489      C1490   1.210       .  T
C1491      C1492   1.405       .  A
C1491      C1496   1.399       .  A
C1491      H1497   1.083       .  S
C1492      C1493   1.403       .  A
C1493      C1494   1.395       .  A
C1493      H1498   1.083       .  S
C1494      C1495   1.404       .  A
C1494      H1499   1.083       .  S
C1495      C1496   1.405       .  A
C1496      H1500   1.083       .  S
C1501      C1502   1.207       .  T
C1503      C1504   1.209       .  T
C1505      C1506   1.405       .  A
C1505      C1510   1.398       .  A
C1505      H1511   1.083       .  S
C1506      C1507   1.405       .  A
C1507      C1508   1.400       .  A
C1507      H1512   1.083       .  S
C1508      C1509   1.405       .  A
C1508      H1513   1.083       .  S
C1509      C1510   1.405       .  A
C1510      H1514   1.083       .  S
C1515      C1516   1.404       .  A
C1515      C1520   1.396       .  A
C1515      H1521   1.083       .  S
C1516      C1517   1.404       .  A
C1517      C1518   1.397       .  A
C1517      H1522   1.083       .  S
C1518      C1519   1.404       .  A
C1518      H1523   1.083       .  S
C1519      C1520   1.404       .  A
C1520      H1524   1.083       .  S
C1525      C1526   1.405       .  A
C1525      C1530   1.398       .  A
C1525      H1531   1.083       .  S
C1526      C1527   1.404       .  A
C1527      C1528   1.397       .  A
C1527      H1532   1.083   1_545  S
C1528      C1529   1.405       .  A
C1528      H1533   1.083       .  S
C1529      C1530   1.404       .  A
C1530      H1534   1.083       .  S
C1535      C1536   1.204       .  T
C1537      C1538   1.213       .  T
C1539      C1540   1.406   1_655  A
C1539      C1544   1.402       .  A
C1539      H1545   1.083       .  S
C1540      C1541   1.405       .  A
C1541      C1542   1.400       .  A
C1541      H1546   1.083       .  S
C1542      C1543   1.405       .  A
C1542      H1547   1.083       .  S
C1543      C1544   1.406   1_455  A
C1544      H1548   1.083       .  S
C1549      C1550   1.209       .  T
C1551      C1552   1.213       .  T
C1553      C1554   1.406       .  A
C1553      C1558   1.402       .  A
C1553      H1559   1.081       .  S
C1554      C1555   1.406   1_554  A
C1555      C1556   1.400       .  A
C1555      H1560   1.084       .  S
C1556      C1557   1.405   1_556  A
C1556      H1561   1.082       .  S
C1557      C1558   1.407       .  A
C1558      H1562   1.084       .  S
C1563      C1564   1.406       .  A
C1563      C1568   1.398       .  A
C1563      H1569   1.083       .  S
C1564      C1565   1.404       .  A
C1565      C1566   1.400       .  A
C1565      H1570   1.083       .  S
C1566      C1567   1.406       .  A
C1566      H1571   1.084       .  S
C1567      C1568   1.404       .  A
C1568      H1572   1.083       .  S
C1573      C1574   1.210       .  T
C1575      C1576   1.211       .  T
C1577      C1578   1.405       .  A
C1577      C1582   1.401       .  A
C1577      H1583   1.083       .  S
C1578      C1579   1.405   1_455  A
C1579      C1580   1.401       .  A
C1579      H1584   1.083       .  S
C1580      C1581   1.405   1_655  A
C1580      H1585   1.083       .  S
C1581      C1582   1.406       .  A
C1582      H1586   1.083       .  S
C1587      C1588   1.404       .  A
C1587      C1592   1.397       .  A
C1587      H1593   1.082       .  S
C1588      C1589   1.404       .  A
C1589      C1590   1.398       .  A
C1589      H1594   1.084       .  S
C1590      C1591   1.405       .  A
C1590      H1595   1.083       .  S
C1591      C1592   1.404       .  A
C1592      H1596   1.084       .  S
C1597      C1598   1.207       .  T
C1599      C1600   1.212       .  T
C1601      C1602   1.404       .  A
C1601      C1606   1.397       .  A
C1601      H1607   1.083       .  S
C1602      C1603   1.407   1_554  A
C1603      C1604   1.403       .  A
C1603      H1608   1.083       .  S
C1604      C1605   1.406   1_556  A
C1604      H1609   1.083       .  S
C1605      C1606   1.405       .  A
C1606      H1610   1.083       .  S
C1611      C1612   1.404       .  A
C1611      C1616   1.397       .  A
C1611      H1617   1.083       .  S
C1612      C1613   1.405       .  A
C1613      C1614   1.398       .  A
C1613      H1618   1.083       .  S
C1614      C1615   1.405       .  A
C1614      H1619   1.083       .  S
C1615      C1616   1.403       .  A
C1616      H1620   1.083       .  S
C1621      C1622   1.404       .  A
C1621      C1626   1.397       .  A
C1621      H1627   1.083       .  S
C1622      C1623   1.405       .  A
C1623      C1624   1.398       .  A
C1623      H1628   1.083       .  S
C1624      C1625   1.405       .  A
C1624      H1629   1.083       .  S
C1625      C1626   1.404       .  A
C1626      H1630   1.083       .  S
C1631      C1632   1.210       .  T
C1633      C1634   1.199       .  T
C1635      C1636   1.205       .  T
C1637      C1638   1.207       .  T
C1639      C1640   1.201       .  T
C1641      C1642   1.202       .  T
C1643      C1644   1.404       .  A
C1643      C1648   1.397       .  A
C1643      H1649   1.082       .  S
C1644      C1645   1.405       .  A
C1645      C1646   1.400       .  A
C1645      H1650   1.084       .  S
C1646      C1647   1.405       .  A
C1646      H1651   1.082       .  S
C1647      C1648   1.405       .  A
C1648      H1652   1.084       .  S
C1653      C1654   1.205       .  T
C1655      C1656   1.202       .  T
C1657      C1658   1.204   1_565  T
C1659      C1660   1.209       .  T
C1661      C1662   1.203       .  T
C1663      C1664   1.204       .  T
C1665      C1666   1.404       .  A
C1665      C1670   1.396       .  A
C1665      H1671   1.083       .  S
C1666      C1667   1.406       .  A
C1667      C1668   1.402       .  A
C1667      H1672   1.083       .  S
C1668      C1669   1.405       .  A
C1668      H1673   1.083       .  S
C1669      C1670   1.405       .  A
C1670      H1674   1.083       .  S
C1675      C1676   1.405       .  A
C1675      C1680   1.400       .  A
C1675      H1681   1.083       .  S
C1676      C1677   1.405       .  A
C1677      C1678   1.399       .  A
C1677      H1682   1.083       .  S
C1678      C1679   1.405       .  A
C1678      H1683   1.083       .  S
C1679      C1680   1.405       .  A
C1680      H1684   1.083       .  S
C1685      C1686   1.207       .  T
C1687      C1688   1.202       .  T
C1689      C1690   1.203       .  T
C1691      C1692   1.403       .  A
C1691      C1696   1.396       .  A
C1691      H1697   1.083       .  S
C1692      C1693   1.405       .  A
C1693      C1694   1.397       .  A
C1693      H1698   1.083       .  S
C1694      C1695   1.404       .  A
C1694      H1699   1.083       .  S
C1695      C1696   1.404       .  A
C1696      H1700   1.083       .  S
C1701      C1702   1.404       .  A
C1701      C1706   1.400       .  A
C1701      H1707   1.083       .  S
C1702      C1703   1.405       .  A
C1703      C1704   1.398       .  A
C1703      H1708   1.083       .  S
C1704      C1705   1.404       .  A
C1704      H1709   1.083       .  S
C1705      C1706   1.405       .  A
C1706      H1710   1.083       .  S
C1711      C1712   1.208       .  T
C1713      C1714   1.204       .  T
C1715      C1716   1.202       .  T
C1717      C1718   1.405       .  A
C1717      C1722   1.399       .  A
C1717      H1723   1.082       .  S
C1718      C1719   1.406       .  A
C1719      C1720   1.400       .  A
C1719      H1724   1.084       .  S
C1720      C1721   1.404       .  A
C1720      H1725   1.082       .  S
C1721      C1722   1.405       .  A
C1722      H1726   1.084       .  S
C1727      C1728   1.209       .  T
C1729      C1730   1.202       .  T
C1731      C1732   1.204       .  T
C1733      C1734   1.405       .  A
C1733      C1738   1.401       .  A
C1733      H1739   1.083       .  S
C1734      C1735   1.405       .  A
C1735      C1736   1.396       .  A
C1735      H1740   1.083       .  S
C1736      C1737   1.404       .  A
C1736      H1741   1.083       .  S
C1737      C1738   1.406       .  A
C1738      H1742   1.083       .  S
C1743      C1744   1.208       .  T
C1745      C1746   1.202       .  T
C1747      C1748   1.205       .  T
C1749      C1750   1.404       .  A
C1749      C1754   1.400       .  A
C1749      H1755   1.083       .  S
C1750      C1751   1.406       .  A
C1751      C1752   1.399       .  A
C1751      H1756   1.083       .  S
C1752      C1753   1.405       .  A
C1752      H1757   1.083       .  S
C1753      C1754   1.406       .  A
C1754      H1758   1.083       .  S
C1759      C1760   1.209       .  T
C1761      C1762   1.204       .  T
C1763      C1764   1.204       .  T
C1765      C1766   1.404       .  A
C1765      C1770   1.398       .  A
C1765      H1771   1.083       .  S
C1766      C1767   1.404       .  A
C1767      C1768   1.397       .  A
C1767      H1772   1.084       .  S
C1768      C1769   1.404       .  A
C1768      H1773   1.082       .  S
C1769      C1770   1.405       .  A
C1770      H1774   1.084       .  S
C1775      C1776   1.406       .  A
C1775      C1780   1.399       .  A
C1775      H1781   1.083       .  S
C1776      C1777   1.404       .  A
C1777      C1778   1.398       .  A
C1777      H1782   1.083       .  S
C1778      C1779   1.405       .  A
C1778      H1783   1.083       .  S
C1779      C1780   1.405       .  A
C1780      H1784   1.083       .  S
C1785      C1786   1.209       .  T
C1787      C1788   1.204       .  T
C1789      C1790   1.203   1_545  T
C1791      C1792   1.405       .  A
C1791      C1796   1.400       .  A
C1791      H1797   1.083       .  S
C1792      C1793   1.405       .  A
C1793      C1794   1.397       .  A
C1793      H1798   1.082       .  S
C1794      C1795   1.404       .  A
C1794      H1799   1.084       .  S
C1795      C1796   1.405       .  A
C1796      H1800   1.083       .  S
C1801      C1802   1.405       .  A
C1801      C1806   1.399       .  A
C1801      H1807   1.083       .  S
C1802      C1803   1.405       .  A
C1803      C1804   1.400       .  A
C1803      H1808   1.083       .  S
C1804      C1805   1.406       .  A
C1804      H1809   1.083       .  S
C1805      C1806   1.405       .  A
C1806      H1810   1.083       .  S
C1811      C1812   1.207       .  T
C1813      C1814   1.199       .  T
C1815      C1816   1.203   1_545  T
C1817      C1818   1.405       .  A
C1817      C1822   1.400       .  A
C1817      H1823   1.083       .  S
C1818      C1819   1.403       .  A
C1819      C1820   1.394       .  A
C1819      H1824   1.083       .  S
C1820      C1821   1.403       .  A
C1820      H1825   1.083       .  S
C1821      C1822   1.405       .  A
C1822      H1826   1.083       .  S
C1827      C1828   1.207       .  T
C1829      C1830   1.203       .  T
C1831      C1832   1.202   1_565  T
C1833      C1834   1.405       .  A
C1833      C1838   1.400       .  A
C1833      H1839   1.083       .  S
C1834      C1835   1.405       .  A
C1835      C1836   1.400       .  A
C1835      H1840   1.083       .  S
C1836      C1837   1.405       .  A
C1836      H1841   1.083       .  S
C1837      C1838   1.405       .  A
C1838      H1842   1.083       .  S
C1843      C1844   1.404       .  A
C1843      C1848   1.396       .  A
C1843      H1849   1.083       .  S
C1844      C1845   1.405       .  A
C1845      C1846   1.398       .  A
C1845      H1850   1.083       .  S
C1846      C1847   1.404       .  A
C1846      H1851   1.083       .  S
C1847      C1848   1.404       .  A
C1848      H1852   1.083       .  S
C1853      C1854   1.209       .  T
C1855      C1856   1.203       .  T
C1857      C1858   1.204       .  T
C1859      C1860   1.212   1_556  T
C1861      C1862   1.404       .  A
C1861      C1866   1.397       .  A
C1861      H1867   1.083       .  S
C1862      C1863   1.408       .  A
C1863      C1864   1.407       .  A
C1863      H1868   1.083       .  S
C1864      C1865   1.408       .  A
C1864      H1869   1.083       .  S
C1865      C1866   1.404       .  A
C1866      H1870   1.083       .  S
C1871      C1872   1.209       .  T
C1873      C1874   1.201       .  T
C1875      C1876   1.204       .  T
C1877      C1878   1.212   1_556  T
C1879      C1880   1.406       .  A
C1879      C1884   1.402       .  A
C1879      H1885   1.083       .  S
C1880      C1881   1.404       .  A
C1881      C1882   1.399       .  A
C1881      H1886   1.083       .  S
C1882      C1883   1.405       .  A
C1882      H1887   1.083       .  S
C1883      C1884   1.406       .  A
C1884      H1888   1.083       .  S
C1889      C1890   1.209       .  T
C1891      C1892   1.203       .  T
C1893      C1894   1.201       .  T
C1895      C1896   1.212   1_556  T
C1897      C1898   1.404       .  A
C1897      C1902   1.399       .  A
C1897      H1903   1.084       .  S
C1898      C1899   1.405       .  A
C1899      C1900   1.397       .  A
C1899      H1904   1.082       .  S
C1900      C1901   1.404       .  A
C1900      H1905   1.084       .  S
C1901      C1902   1.405       .  A
C1902      H1906   1.082       .  S
C1907      C1908   1.211       .  T
C1909      C1910   1.202       .  T
C1911      C1912   1.202       .  T
C1913      C1914   1.211   1_556  T
C1915      C1916   1.405       .  A
C1915      C1920   1.399       .  A
C1915      H1921   1.083       .  S
C1916      C1917   1.406       .  A
C1917      C1918   1.402       .  A
C1917      H1922   1.082       .  S
C1918      C1919   1.406       .  A
C1918      H1923   1.083       .  S
C1919      C1920   1.404       .  A
C1920      H1924   1.083       .  S
C1925      C1926   1.404       .  A
C1925      C1930   1.400       .  A
C1925      H1931   1.089       .  S
C1926      C1927   1.406       .  A
C1927      C1928   1.398       .  A
C1927      H1932   1.076       .  S
C1928      C1929   1.404       .  A
C1928      H1933   1.089       .  S
C1929      C1930   1.406       .  A
C1930      H1934   1.077       .  S
C1935      C1936   1.406       .  A
C1935      C1940   1.401       .  A
C1935      H1941   1.084       .  S
C1936      C1937   1.404       .  A
C1937      C1938   1.396       .  A
C1937      H1942   1.082       .  S
C1938      C1939   1.403       .  A
C1938      H1943   1.084       .  S
C1939      C1940   1.406       .  A
C1940      H1944   1.082       .  S
C1945      C1946   1.207       .  T
C1947      C1948   1.206       .  T
C1949      C1950   1.202       .  T
C1951      C1952   1.211       .  T
C1953      C1954   1.406       .  A
C1953      C1958   1.403       .  A
C1953      H1959   1.083       .  S
C1954      C1955   1.406       .  A
C1955      C1956   1.402       .  A
C1955      H1960   1.083       .  S
C1956      C1957   1.406       .  A
C1956      H1961   1.083       .  S
C1957      C1958   1.406       .  A
C1958      H1962   1.083       .  S
C1963      C1964   1.208       .  T
C1965      C1966   1.201       .  T
C1967      C1968   1.202       .  T
C1969      C1970   1.210       .  T
C1971      C1972   1.407       .  A
C1971      C1976   1.403       .  A
C1971      H1977   1.083       .  S
C1972      C1973   1.405       .  A
C1973      C1974   1.398       .  A
C1973      H1978   1.083       .  S
C1974      C1975   1.404       .  A
C1974      H1979   1.083       .  S
C1975      C1976   1.407       .  A
C1976      H1980   1.083       .  S
C1981      C1982   1.403       .  A
C1981      C1986   1.395       .  A
C1981      H1987   1.083       .  S
C1982      C1983   1.406       .  A
C1983      C1984   1.401       .  A
C1983      H1988   1.083       .  S
C1984      C1985   1.406       .  A
C1984      H1989   1.082       .  S
C1985      C1986   1.404       .  A
C1986      H1990   1.083       .  S
C1991      C1992   1.204       .  T
C1993      C1994   1.203       .  T
C1995      C1996   1.202       .  T
C1997      C1998   1.210       .  T
C1999      C2000   1.404       .  A
C1999      C2004   1.395       .  A
C1999      H2005   1.083       .  S
C2000      C2001   1.404       .  A
C2001      C2002   1.400       .  A
C2001      H2006   1.084       .  S
C2002      C2003   1.405       .  A
C2002      H2007   1.082       .  S
C2003      C2004   1.404       .  A
C2004      H2008   1.084       .  S
C2009      C2010   1.207       .  T
C2011      C2012   1.205       .  T
C2013      C2014   1.203       .  T
C2015      C2016   1.212       .  T
C2017      C2018   1.405       .  A
C2017      C2022   1.398       .  A
C2017      H2023   1.082       .  S
C2018      C2019   1.406       .  A
C2019      C2020   1.402       .  A
C2019      H2024   1.084       .  S
C2020      C2021   1.406       .  A
C2020      H2025   1.082       .  S
C2021      C2022   1.404       .  A
C2022      H2026   1.084       .  S
C2027      C2028   1.404       .  A
C2027      C2032   1.396       .  A
C2027      H2033   1.082       .  S
C2028      C2029   1.405       .  A
C2029      C2030   1.400       .  A
C2029      H2034   1.083       .  S
C2030      C2031   1.405       .  A
C2030      H2035   1.083       .  S
C2031      C2032   1.404       .  A
C2032      H2036   1.084       .  S
C2037      C2038   1.404       .  A
C2037      C2042   1.396       .  A
C2037      H2043   1.083       .  S
C2038      C2039   1.406       .  A
C2039      C2040   1.402       .  A
C2039      H2044   1.083       .  S
C2040      C2041   1.407       .  A
C2040      H2045   1.083       .  S
C2041      C2042   1.403       .  A
C2042      H2046   1.083       .  S
C2047      C2048   1.210       .  T
C2049      C2050   1.202       .  T
C2051      C2052   1.204       .  T
C2053      C2054   1.211       .  T
C2055      C2056   1.405       .  A
C2055      C2060   1.400       .  A
C2055      H2061   1.084       .  S
C2056      C2057   1.407       .  A
C2057      C2058   1.405       .  A
C2057      H2062   1.083       .  S
C2058      C2059   1.406       .  A
C2058      H2063   1.083       .  S
C2059      C2060   1.405       .  A
C2060      H2064   1.083       .  S
C2065      C2066   1.209       .  T
C2067      C2068   1.204       .  T
C2069      C2070   1.203       .  T
C2071      C2072   1.213       .  T
C2073      C2074   1.405       .  A
C2073      C2078   1.400       .  A
C2073      H2079   1.083       .  S
C2074      C2075   1.406       .  A
C2075      C2076   1.403       .  A
C2075      H2080   1.083       .  S
C2076      C2077   1.406       .  A
C2076      H2081   1.083       .  S
C2077      C2078   1.405       .  A
C2078      H2082   1.083       .  S
C2083      C2084   1.406       .  A
C2083      C2088   1.400       .  A
C2083      H2089   1.083       .  S
C2084      C2085   1.405       .  A
C2085      C2086   1.400       .  A
C2085      H2090   1.083       .  S
C2086      C2087   1.405       .  A
C2086      H2091   1.083       .  S
C2087      C2088   1.405       .  A
C2088      H2092   1.083       .  S
C2093      C2094   1.211       .  T
C2095      C2096   1.201       .  T
C2097      C2098   1.202       .  T
C2099      C2100   1.212       .  T
C2101      C2102   1.405       .  A
C2101      C2106   1.400       .  A
C2101      H2107   1.082       .  S
C2102      C2103   1.405       .  A
C2103      C2104   1.400       .  A
C2103      H2108   1.083       .  S
C2104      C2105   1.405       .  A
C2104      H2109   1.083       .  S
C2105      C2106   1.405       .  A
C2106      H2110   1.084       .  S
C2111      C2112   1.405       .  A
C2111      C2116   1.398       .  A
C2111      H2117   1.083       .  S
C2112      C2113   1.404       .  A
C2113      C2114   1.399       .  A
C2113      H2118   1.083       .  S
C2114      C2115   1.405       .  A
C2114      H2119   1.083       .  S
C2115      C2116   1.405       .  A
C2116      H2120   1.083       .  S
C2121      C2122   1.208       .  T
C2123      C2124   1.203       .  T
C2125      C2126   1.202       .  T
C2127      C2128   1.212       .  T
C2129      C2130   1.406       .  A
C2129      C2134   1.403       .  A
C2129      H2135   1.083       .  S
C2130      C2131   1.406       .  A
C2131      C2132   1.401       .  A
C2131      H2136   1.083       .  S
C2132      C2133   1.405       .  A
C2132      H2137   1.082       .  S
C2133      C2134   1.407       .  A
C2134      H2138   1.083       .  S
C2139      C2140   1.403       .  A
C2139      C2144   1.396       .  A
C2139      H2145   1.083       .  S
C2140      C2141   1.406       .  A
C2141      C2142   1.403       .  A
C2141      H2146   1.083       .  S
C2142      C2143   1.406       .  A
C2142      H2147   1.083       .  S
C2143      C2144   1.404       .  A
C2144      H2148   1.083       .  S
C2149      C2150   1.405       .  A
C2149      C2154   1.398       .  A
C2149      H2155   1.083       .  S
C2150      C2151   1.405       .  A
C2151      C2152   1.398       .  A
C2151      H2156   1.083       .  S
C2152      C2153   1.404       .  A
C2152      H2157   1.083       .  S
C2153      C2154   1.405       .  A
C2154      H2158   1.083       .  S
C2159      C2160   1.208       .  T
