geometry optimzed in LAMMPS
_audit_creation_date              2020-12-01 
_audit_creation_method            'lammps2cif' 
_symmetry_space_group_name_H-M    'P1' 
_symmetry_Int_Tables_number       1 
_symmetry_cell_setting            triclinic 
loop_ 
_symmetry_equiv_pos_as_xyz 
  x,y,z 
_cell_length_a                    44.61960469 
_cell_length_b                    44.050914606639076 
_cell_length_c                    55.43750427191637 
_cell_angle_alpha                 88.78933159520744 
_cell_angle_beta                  90.07355989933977 
_cell_angle_gamma                 121.32822942934035 
loop_ 
_atom_site_label 
_atom_site_type_symbol 
_atom_site_fract_x 
_atom_site_fract_y 
_atom_site_fract_z 
_atom_site_charge 
O1          O  0.33547392  0.09415007  0.16939361    -0.81800
O2          O  0.43331994  0.03313537  0.19208222    -0.66500
O3          O  0.39603667  0.08984072  0.16988012    -1.13100
C4          C  0.34885801  0.01586865  0.10407592     1.05100
O5          O  0.42660444  0.00221970  0.15901740    -0.79700
O6          O  0.43675064  0.05416528  0.12636641    -0.67300
Ni7        Ni  0.37200169  0.10303753  0.19184346     1.34900
C8          C  0.43214236  0.07757146  0.11618751     0.83800
O9          O  0.44283006  0.09560983  0.20504059    -0.80200
O10         O  0.40643273  0.11392169  0.21636520    -0.90500
C11         C  0.43862088  0.01214303  0.17992211     0.83400
O12         O  0.34257447  0.05681645  0.20597313    -0.68700
O13         O  0.37274183  0.00915639  0.10835601    -0.88000
C14         C  0.35406333  0.03939677  0.21682675     0.84200
C15         C  0.43299570  0.11078727  0.21983696     1.05800
H16         H  0.36072232  0.00785622  0.16663233     0.37600
O17         O  0.38081935  0.02730673  0.15838074    -1.10600
O18         O  0.40674649  0.08177661  0.12187907    -0.67300
Ni19       Ni  0.36776808  0.05955819  0.14491213     1.26300
O20         O  0.37956613  0.03749027  0.20824944    -0.67500
O21         O  0.33847717  0.02846654  0.12016488    -0.79800
C22         C  0.34031425  0.10353438  0.14727485     0.83600
O23         O  0.35623031  0.09374670  0.13350296    -0.67000
Ni24       Ni  0.39875077  0.00805892  0.13559726     1.27400
Ni25       Ni  0.41319014  0.06092523  0.18185532     1.26100
H26         H  0.41547039  0.11138911  0.16284161     0.38200
C27         C  0.50314102  0.16635831  0.35432267     0.79300
N28         N  0.48468056  0.14895500  0.33440532    -0.79000
C29         C  0.49629210  0.16447084  0.31208652     0.81800
N30         N  0.03592646  0.20824218  0.30712505    -0.78900
C31         C  0.05476574  0.22540683  0.32676892     0.81900
N32         N  0.04286053  0.21000875  0.34886539    -0.80600
C33         C  0.36210991  0.03261037  0.35894135     0.79300
N34         N  0.34680555  0.02756633  0.33681328    -0.79000
C35         C  0.36272332  0.02398476  0.31702009     0.81800
N36         N  0.39384613  0.02593818  0.31955951    -0.78900
C37         C  0.40949334  0.52226746  0.34082913     0.81900
N38         N  0.39169226  0.52405485  0.36009014    -0.80600
C39         C  0.01394717  0.13843023  0.98591798     0.79300
N40         N  0.04516117  0.16890028  0.98787980    -0.79000
C41         C  0.05908485  0.18257465  0.00937185     0.81800
N42         N  0.04077705  0.16502488  0.02963559    -0.78900
C43         C  0.00928129  0.13411388  0.02833110     0.81900
N44         N  0.99567130  0.12051366  0.00626491    -0.80600
C45         C  0.33888987  0.55332111  0.99741553     0.79300
N46         N  0.33285762  0.06721202  0.99913954    -0.79000
C47         C  0.33388971  0.59477553  0.97247973     0.81800
N48         N  0.33616143  0.57833228  0.95281025    -0.78900
C49         C  0.33985591  0.54977373  0.95491604     0.81900
N50         N  0.34064159  0.53686690  0.97737402    -0.80600
O51         O  0.21954072  0.30123446  0.50224232    -0.81800
O52         O  0.30188762  0.22483090  0.52374618    -0.66500
O53         O  0.27722725  0.29126127  0.49853118    -1.13100
C54         C  0.22305477  0.21391677  0.43604425     1.05100
O55         O  0.30945169  0.20832615  0.48754204    -0.79700
O56         O  0.31419611  0.25795025  0.45512170    -0.67300
Ni57       Ni  0.26268853  0.31569604  0.51879406     1.34900
C58         C  0.30761589  0.28013605  0.44536597     0.83800
O59         O  0.31955706  0.29138989  0.53667472    -0.80200
O60         O  0.30392127  0.33257523  0.53748214    -0.90500
C61         C  0.31124996  0.20783534  0.51037643     0.83400
O62         O  0.23730050  0.27847351  0.54194519    -0.68700
O63         O  0.24894769  0.20963941  0.43887935    -0.88000
C64         C  0.23496810  0.24906114  0.54695221     0.84200
C65         C  0.32129784  0.31899524  0.54535830     1.05800
H66         H  0.23872300  0.20738255  0.49543431     0.37600
O67         O  0.25866829  0.22770692  0.48791539    -1.10600
O68         O  0.28048920  0.28133469  0.45079231    -0.67300
Ni69       Ni  0.24457521  0.25941079  0.47560807     1.26300
O70         O  0.25186980  0.23778830  0.53551201    -0.67500
O71         O  0.21323475  0.22651819  0.45257449    -0.79800
C72         C  0.21498630  0.30186456  0.47971806     0.83600
O73         O  0.22953583  0.29150978  0.46507742    -0.67000
Ni74       Ni  0.27843968  0.21111410  0.46483728     1.27400
Ni75       Ni  0.28971806  0.25898491  0.51218837     1.26100
H76         H  0.29769578  0.30959746  0.49000071     0.38200
O77         O  0.23991672  0.34013137  0.82351796    -0.81800
O78         O  0.40430815  0.44262167  0.79668602    -0.66500
O79         O  0.31292037  0.37400007  0.82298357    -1.13100
C80         C  0.33511205  0.47188405  0.87181600     1.05100
O81         O  0.42520305  0.45882884  0.83337125    -0.79700
O82         O  0.38519484  0.43752950  0.87367253    -0.67300
Ni83       Ni  0.27573750  0.34824828  0.80060311     1.34900
C84         C  0.35817422  0.40895275  0.88116466     0.83800
O85         O  0.35899001  0.37414072  0.78846651    -0.80200
O86         O  0.30533419  0.35074325  0.77441586    -0.90500
C87         C  0.43012696  0.45728428  0.81102787     0.83400
O88         O  0.27997811  0.39128919  0.78879418    -0.68700
O89         O  0.36700712  0.48606551  0.86508707    -0.88000
C90         C  0.30732834  0.41615772  0.77806442     0.84200
C91         C  0.33698485  0.35935349  0.77169691     1.05800
H92         H  0.35119644  0.45666542  0.81900884     0.37600
O93         O  0.35472087  0.44060870  0.82904101    -1.10600
O94         O  0.32886832  0.39406314  0.87018006    -0.67300
Ni95       Ni  0.31008281  0.40768704  0.84344158     1.26300
O96         O  0.33823010  0.42267482  0.78276523    -0.67500
O97         O  0.30995911  0.44248814  0.86396356    -0.79800
C98         C  0.23695396  0.34970106  0.84439002     0.83600
O99         O  0.26314265  0.37391192  0.85583935    -0.67000
Ni100      Ni  0.39396275  0.47082942  0.84826734     1.27400
Ni101      Ni  0.35775482  0.40790715  0.80880197     1.26100
H102        H  0.31541499  0.35705531  0.83278030     0.38200
C103        C  0.39769479  0.38449029  0.67618694     0.79300
N104        N  0.43254311  0.40846804  0.67394068    -0.79000
C105        C  0.44880874  0.41846208  0.65200534     0.81800
N106        N  0.42934580  0.40443005  0.63207151    -0.78900
C107        C  0.39430470  0.38121994  0.63365572     0.81900
N108        N  0.37852198  0.37086077  0.65582518    -0.80600
C109        C  0.29433064  0.00785269  0.65962810     0.79300
N110        N  0.28135313  0.47973691  0.67655406    -0.79000
C111        C  0.28310038  0.48922505  0.70002703     0.81800
N112        N  0.30401344  0.02802173  0.70640919    -0.78900
C113        C  0.30659923  0.05123356  0.68888924     0.81900
N114        N  0.30173678  0.04068050  0.66576651    -0.80600
C115        C  0.33949067  0.35935707  0.02153015     0.79300
N116        N  0.30529489  0.35001482  0.02307388    -0.79000
C117        C  0.28797368  0.35183213  0.00352656     0.81800
N118        N  0.30518047  0.36242154  0.98212181    -0.78900
C119        C  0.33884561  0.37107460  0.97983485     0.81900
N120        N  0.35621558  0.36933771  0.99955886    -0.80600
O121        O  0.09042165  0.27149276  0.50446659    -0.81800
O122        O  0.43331291  0.20568691  0.52673584    -0.66500
O123        O  0.01991938  0.21636005  0.50276897    -1.13100
C124        C  0.99717069  0.26247096  0.43315934     1.05100
O125        O  0.40997415  0.17622813  0.49350015    -0.79700
O126        O  0.44715371  0.16975036  0.45769095    -0.67300
Ni127      Ni  0.05862666  0.22940707  0.52325248     1.34900
C128        C  0.47569973  0.17410153  0.44958524     0.83800
O129        O  0.47637780  0.18672265  0.54703090    -0.80200
O130        O  0.02999769  0.18865839  0.54400844    -0.90500
C131        C  0.40662236  0.18694039  0.51383048     0.83400
O132        O  0.05094746  0.25731531  0.54532392    -0.68700
O133        O  0.46437509  0.23392402  0.43900440    -0.88000
C134        C  0.02662499  0.26372520  0.54853698     0.84200
C135        C  0.49857499  0.18097394  0.55736937     1.05800
H136        H  0.48082478  0.25515570  0.49016960     0.37600
O137        O  0.47838655  0.23243973  0.48719717    -1.10600
O138        O  0.00809718  0.20698860  0.45419269    -0.67300
Ni139      Ni  0.02338186  0.24599576  0.47567920     1.26300
O140        O  0.50076705  0.25423890  0.53458685    -0.67500
O141        O  0.02271651  0.27262224  0.44785040    -0.79800
C142        C  0.09564329  0.27481546  0.48175309     0.83600
O143        O  0.07051284  0.25926045  0.46700893    -0.67000
Ni144      Ni  0.43878737  0.20622296  0.46712439     1.27400
Ni145      Ni  0.47682277  0.20973916  0.51732865     1.26100
H146        H  0.01405520  0.19357462  0.49662041     0.38200
O147        O  0.35279759  0.22091196  0.17011550    -0.81800
O148        O  0.44191780  0.38705973  0.19050304    -0.66500
O149        O  0.37561260  0.29339447  0.16895946    -1.13100
C150        C  0.46745536  0.32029816  0.11215918     1.05100
O151        O  0.45360126  0.40790523  0.15296066    -0.79700
O152        O  0.43280853  0.36796286  0.11335012    -0.67300
Ni153      Ni  0.35624586  0.25546163  0.19252254     1.34900
C154        C  0.40273638  0.34161277  0.10858389     0.83800
O155        O  0.37607772  0.33900727  0.20298732    -0.80200
O156        O  0.35576820  0.28460682  0.21805556    -0.90500
C157        C  0.45362054  0.41286382  0.17541312     0.83400
O158        O  0.40094643  0.26458602  0.20272697    -0.68700
O159        O  0.48268839  0.35195408  0.11983696    -0.88000
C160        C  0.42419584  0.29348557  0.21195969     0.84200
C161        C  0.36260093  0.31637921  0.22019321     1.05800
H162        H  0.45639871  0.33418372  0.16673285     0.37600
O163        O  0.43970044  0.33782010  0.15803468    -1.10600
O164        O  0.38835307  0.31254797  0.12094681    -0.67300
Ni165      Ni  0.40629407  0.29317886  0.14470442     1.26300
O166        O  0.42750001  0.32336468  0.20631721    -0.67500
O167        O  0.43813004  0.29492990  0.12048910    -0.79800
C168        C  0.35470929  0.21929779  0.14731994     0.83600
O169        O  0.37172019  0.24676080  0.13364423    -0.67000
Ni170      Ni  0.46696169  0.37798831  0.13736130     1.27400
Ni171      Ni  0.40859715  0.33949509  0.18070811     1.26100
H172        H  0.35650290  0.29418789  0.16139000     0.38200
C173        C  0.38830948  0.36456037  0.31754871     0.79300
N174        N  0.41323591  0.39948844  0.32023665    -0.79000
C175        C  0.42386729  0.41337521  0.34252576     0.81800
N176        N  0.40889021  0.39175359  0.36215569    -0.78900
C177        C  0.38399167  0.35707988  0.35983140     0.81900
N178        N  0.37353790  0.34369907  0.33754252    -0.80600
C179        C  0.02161237  0.28813593  0.32958139     0.79300
N180        N  0.49824176  0.28019866  0.31356733    -0.79000
C181        C  0.00413244  0.28673197  0.28918260     0.81800
N182        N  0.03822424  0.30473127  0.28210138    -0.78900
C183        C  0.06416844  0.31506671  0.29832401     0.81900
N184        N  0.05551210  0.30647218  0.32194733    -0.80600
O185        O  0.28879627  0.08651637  0.48757170    -0.81800
O186        O  0.21044104  0.42309446  0.46341477    -0.66500
O187        O  0.23222668  0.01554302  0.48884867    -1.13100
C188        C  0.27211745  0.98463935  0.55736387     1.05100
O189        O  0.17990493  0.40028532  0.49713888    -0.79700
O190        O  0.17803699  0.44106105  0.53199980    -0.67300
Ni191      Ni  0.24858768  0.05632026  0.46835456     1.34900
C192        C  0.18699894  0.47078417  0.54092532     0.83800
O193        O  0.19984121  0.47413129  0.44350555    -0.80200
O194        O  0.20987188  0.03049216  0.44717777    -0.90500
C195        C  0.19040062  0.39616009  0.47686873     0.83400
O196        O  0.27702160  0.04728866  0.44763773    -0.68700
O197        O  0.23863823  0.45011216  0.55115518    -0.88000
C198        C  0.28249085  0.02194654  0.44489710     0.84200
C199        C  0.19726269  0.49963017  0.43440509     1.05800
H200        H  0.26106338  0.46517012  0.49916034     0.37600
O201        O  0.24041770  0.46611104  0.50256922    -1.10600
O202        O  0.22224564  0.00275237  0.53759941    -0.67300
Ni203      Ni  0.25984555  0.01515787  0.51533409     1.26300
O204        O  0.26486453  0.48995425  0.45572946    -0.67500
O205        O  0.28476053  0.01040418  0.54186689    -0.79800
C206        C  0.29040724  0.08987674  0.51030391     0.83600
O207        O  0.27584447  0.06308181  0.52460721    -0.67000
Ni208      Ni  0.21026950  0.42670338  0.52328107     1.27400
Ni209      Ni  0.22007780  0.46927404  0.47298738     1.26100
H210        H  0.21013109  0.01097633  0.49530823     0.38200
O211        O  0.06343245  0.06142532  0.83048071    -0.81800
O212        O  0.11247906  0.21587570  0.86172451    -0.66500
O213        O  0.05790535  0.12079464  0.83743981    -1.13100
C214        C  0.13994014  0.17110210  0.77165356     1.05100
O215        O  0.11385433  0.23712174  0.82529390    -0.79700
O216        O  0.09550633  0.20247068  0.78292361    -0.67300
Ni217      Ni  0.04968772  0.08057420  0.85628280     1.34900
C218        C  0.06726616  0.17310076  0.77949542     0.83800
O219        O  0.05121495  0.15405295  0.87738685    -0.80200
O220        O  0.03390974  0.09622461  0.88275473    -0.90500
C221        C  0.12189405  0.24245943  0.84736961     0.83400
O222        O  0.09503824  0.10032881  0.87076083    -0.68700
O223        O  0.15444091  0.20041857  0.78275645    -0.88000
C224        C  0.11440053  0.13125275  0.87902213     0.84200
C225        C  0.03441494  0.12410540  0.88922564     1.05800
H226        H  0.13553689  0.17490326  0.82999464     0.37600
O227        O  0.11537459  0.17513795  0.82387355    -1.10600
O228        O  0.05803274  0.14489737  0.79190642    -0.67300
Ni229      Ni  0.08600769  0.13031239  0.80915244     1.26300
O230        O  0.11247160  0.15771553  0.87188818    -0.67500
O231        O  0.11459746  0.14182839  0.78044259    -0.79800
C232        C  0.04953680  0.05651560  0.80978830     0.83600
O233        O  0.05452189  0.08323442  0.79720530    -0.67000
Ni234      Ni  0.13365563  0.21747712  0.80467152     1.27400
Ni235      Ni  0.08425143  0.16701764  0.85068345     1.26100
H236        H  0.03524583  0.11678481  0.83284982     0.38200
C237        C  0.13192925  0.16056965  0.66988200     0.79300
N238        N  0.15362841  0.18140713  0.65161091    -0.79000
C239        C  0.14434959  0.17189298  0.62833123     0.81800
N240        N  0.11391043  0.14127877  0.62357991    -0.78900
C241        C  0.09187595  0.12057058  0.64168192     0.81900
N242        N  0.10143380  0.13048425  0.66478327    -0.80600
C243        C  0.47049124  0.17266536  0.65830798     0.79300
N244        N  0.43849390  0.16741804  0.66402740    -0.79000
C245        C  0.42903656  0.16745928  0.68733812     0.81800
N246        N  0.45226099  0.17293542  0.70496922    -0.78900
C247        C  0.48431503  0.17834536  0.69958300     0.81900
N248        N  0.99846995  0.17068543  0.67352212    -0.80600
O249        O  0.05838025  0.04445113  0.15412018    -0.81800
O250        O  0.21672740  0.10875978  0.12677007    -0.66500
O251        O  0.12264528  0.04933468  0.15048708    -1.13100
C252        C  0.16141336  0.14215804  0.20794402     1.05100
O253        O  0.23434435  0.11394083  0.16444931    -0.79700
O254        O  0.19863661  0.10202276  0.20623883    -0.67300
Ni255      Ni  0.08342667  0.03440368  0.13017406     1.34900
C256        C  0.17272031  0.07076998  0.20968725     0.83800
O257        O  0.16205439  0.04495987  0.11340940    -0.80200
O258        O  0.10528086  0.02301724  0.10482411    -0.90500
C259        C  0.24107019  0.11752515  0.14201480     0.83400
O260        O  0.09877505  0.07895979  0.11387752    -0.68700
O261        O  0.19077634  0.15713172  0.19666099    -0.88000
C262        C  0.12895108  0.10021894  0.10471254     0.84200
C263        C  0.13562847  0.02869299  0.09946206     1.05800
H264        H  0.16888293  0.12951513  0.15267707     0.37600
O265        O  0.17128817  0.11129518  0.16082400    -1.10600
O266        O  0.14587550  0.05673961  0.19629003    -0.67300
Ni267      Ni  0.12772625  0.07974868  0.17640692     1.26300
O268        O  0.15669497  0.10206652  0.11247291    -0.67500
O269        O  0.13517864  0.11156610  0.20261304    -0.79800
C270        C  0.05515447  0.03518315  0.17634060     0.83600
O271        O  0.08209278  0.04582132  0.18942746    -0.67000
Ni272      Ni  0.21177885  0.13534873  0.17997105     1.27400
Ni273      Ni  0.16847082  0.07870876  0.13722520     1.26100
H274        H  0.12103993  0.02803739  0.15706559     0.38200
C275        C  0.17643148  0.21449830  0.29651421     0.79300
N276        N  0.17331036  0.24350207  0.29517685    -0.79000
C277        C  0.17716590  0.26283588  0.31484859     0.81800
N278        N  0.18438279  0.25264851  0.33616660    -0.78900
C279        C  0.18742032  0.22370047  0.33814203     0.81900
N280        N  0.18318281  0.20420453  0.31823386    -0.80600
C281        C  0.17868072  0.48370250  0.33290821     0.79300
N282        N  0.17518567  0.45287070  0.32540861    -0.79000
C283        C  0.17546649  0.44663817  0.30154380     0.81800
N284        N  0.17871694  0.47143062  0.28526909    -0.78900
C285        C  0.18444775  0.99715175  0.29338756     0.81900
N286        N  0.18459231  0.00619750  0.31683000    -0.80600
C287        C  0.15832535  0.17955580  0.97104433     0.79300
N288        N  0.16891050  0.21462370  0.97234684    -0.79000
C289        C  0.16816479  0.22892971  0.99366867     0.81800
N290        N  0.15716954  0.20778720  0.01375328    -0.78900
C291        C  0.14658481  0.17299342  0.01301735     0.81900
N292        N  0.14715675  0.15875386  0.99158687    -0.80600
O293        O  0.13675450  0.36243917  0.82388787    -0.81800
O294        O  0.04344702  0.43148396  0.79989605    -0.66500
O295        O  0.11193945  0.40989372  0.82319995    -1.13100
C296        C  0.02990510  0.34362772  0.88627986     1.05100
O297        O  0.02107389  0.43116994  0.83587291    -0.79700
O298        O  0.05926991  0.43120732  0.87325493    -0.67300
Ni299      Ni  0.13288163  0.39334984  0.80104516     1.34900
C300        C  0.08837529  0.43477100  0.87930836     0.83800
O301        O  0.10867507  0.45286774  0.78622845    -0.80200
O302        O  0.13345480  0.42271430  0.77480085    -0.90500
C303        C  0.02715077  0.44087395  0.81382887     0.83400
O304        O  0.08854425  0.35483398  0.79153945    -0.68700
O305        O  0.01510534  0.36085487  0.88078875    -0.88000
C306        C  0.06644196  0.35904398  0.77997029     0.84200
C307        C  0.12508718  0.44582355  0.77066808     1.05800
H308        H  0.03064151  0.36318726  0.82687100     0.37600
O309        O  0.04734674  0.38472905  0.83484898    -1.10600
O310        O  0.09973723  0.41558044  0.87104587    -0.67300
Ni311      Ni  0.08275450  0.37695701  0.84829927     1.26300
O312        O  0.05948404  0.38282825  0.78569328    -0.67500
O313        O  0.05340538  0.34420830  0.87309134    -0.79800
C314        C  0.13420384  0.35732300  0.84653624     0.83600
O315        O  0.11849009  0.36801263  0.85990431    -0.67000
Ni316      Ni  0.02029019  0.39516943  0.85651502     1.27400
Ni317      Ni  0.07741943  0.41941491  0.81045329     1.26100
H318        H  0.13053522  0.43133899  0.83024164     0.38200
C319        C  0.03682570  0.32651024  0.64066404     0.79300
N320        N  0.03455160  0.31298868  0.66358272    -0.79000
C321        C  0.03279511  0.33109418  0.68277862     0.81800
N322        N  0.03364757  0.36184644  0.67881215    -0.78900
C323        C  0.54508601  0.38516763  0.65660183     0.81900
N324        N  0.54508608  0.36755951  0.63682686    -0.80600
C325        C  0.12177754  0.47776348  0.62886640     0.79300
N326        N  0.10098960  0.99813846  0.62504591    -0.79000
C327        C  0.08592070  0.00349526  0.64447575     0.81800
N328        N  0.09767483  0.49486867  0.66795063    -0.78900
C329        C  0.11971150  0.48259501  0.67111854     0.81900
N330        N  0.13204973  0.47440745  0.65140395    -0.80600
C331        C  0.54120255  0.31240804  0.98458328     0.79300
N332        N  0.52477928  0.31467801  0.00450241    -0.79000
C333        C  0.53704155  0.31380720  0.02684399     0.81800
N334        N  0.56457704  0.30901811  0.02918924    -0.78900
C335        C  0.58094743  0.30631133  0.00954099     0.81900
N336        N  0.56905253  0.30828601  0.98739640    -0.80600
C337        C  0.17305983  0.03793651  0.99979293     0.79300
N338        N  0.20503047  0.06706984  0.99500158    -0.79000
C339        C  0.21804522  0.07611353  0.97217964     0.81800
N340        N  0.19811967  0.05546645  0.95394440    -0.78900
C341        C  0.16551460  0.02676271  0.95808881     0.81900
N342        N  0.15308850  0.01775493  0.98121629    -0.80600
C343        C  0.46180408  0.99982067  0.18850209     0.79300
N344        N  0.44410317  0.46174784  0.18218170    -0.79000
C345        C  0.46634490  0.44933242  0.18307387     0.81800
N346        N  0.99932689  0.47093928  0.18437044    -0.78900
C347        C  0.01952699  0.01077431  0.18594636     0.81900
N348        N  0.99654490  0.02221522  0.18745888    -0.80600
C349        C  0.32345760  0.18470218  0.52026940     0.79300
N350        N  0.30084998  0.14892451  0.51864789    -0.79000
C351        C  0.31258487  0.12593243  0.51953093     0.81800
N352        N  0.34747758  0.13912267  0.52069133    -0.78900
C353        C  0.37070221  0.17457858  0.52192769     0.81900
N354        N  0.35862919  0.19741139  0.52101617    -0.80600
C355        C  0.19042149  0.31286688  0.47162176     0.79300
N356        N  0.20178475  0.34822692  0.47046703    -0.79000
C357        C  0.17844468  0.35938841  0.47011319     0.81800
N358        N  0.14357688  0.33479517  0.47212312    -0.78900
C359        C  0.13173815  0.29948110  0.47312000     0.81900
N360        N  0.15537022  0.28878342  0.47364826    -0.80600
C361        C  0.01423369  0.46413657  0.80534672     0.79300
N362        N  0.47920555  0.44865773  0.80406283    -0.79000
C363        C  0.46672779  0.47103503  0.80308175     0.81800
N364        N  0.49314902  0.00568454  0.80221857    -0.78900
C365        C  0.02643795  0.01955549  0.80174389     0.81900
N366        N  0.03896511  0.99725069  0.80216180    -0.80600
C367        C  0.14945401  0.33672091  0.85600857     0.79300
N368        N  0.18505537  0.35238092  0.85477001    -0.79000
C369        C  0.20041171  0.33257533  0.85402123     0.81800
N370        N  0.17933256  0.29639868  0.85344985    -0.78900
C371        C  0.14365983  0.27999176  0.85506055     0.81900
N372        N  0.12906803  0.30053802  0.85546738    -0.80600
C373        C  0.32692383  0.12588048  0.13840094     0.79300
N374        N  0.34822451  0.16186937  0.13945498    -0.79000
C375        C  0.33478059  0.18335881  0.13748051     0.81800
N376        N  0.29948363  0.16825347  0.13574069    -0.78900
C377        C  0.27779034  0.13241602  0.13487117     0.81900
N378        N  0.29164477  0.11137019  0.13703887    -0.80600
C379        C  0.13372241  0.44068917  0.72706845    -0.10100
C380        C  0.13115220  0.46078557  0.74554332     0.06100
C381        C  0.13041270  0.49142469  0.73891832    -0.03800
C382        C  0.12933521  0.49956109  0.71441465    -0.08300
C383        C  0.12885589  0.47755722  0.69608037     0.05300
C384        C  0.13239910  0.44851565  0.70270804    -0.03300
Br385      Br  0.13077028  0.41525570  0.68005311    -0.03000
H386        H  0.13441277  0.41702127  0.73148089     0.09200
H387        H  0.12747977  0.52252109  0.70971559     0.07200
Br388      Br  0.13064485  0.52284796  0.76240087    -0.03400
C389        C  0.01930964  0.33113076  0.74893496    -0.10100
C390        C  0.05244747  0.33941217  0.75712005     0.06100
C391        C  0.07441046  0.33438888  0.74118152    -0.03800
C392        C  0.06481712  0.32570831  0.71707439    -0.08300
C393        C  0.03345071  0.32129986  0.70834248     0.05300
C394        C  0.00953771  0.32151038  0.72492875    -0.03300
Br395      Br  0.47449094  0.32130086  0.71156006    -0.03000
H396        H  0.00174967  0.33403848  0.76081913     0.09200
H397        H  0.08367136  0.32617009  0.70453570     0.07200
Br398      Br  0.12047266  0.34431729  0.74946754    -0.03400
C399        C  0.08944888  0.46759409  0.91564984    -0.10100
C400        C  0.10835952  0.46121500  0.89813677     0.06100
C401        C  0.14522259  0.47939719  0.89970988    -0.03800
C402        C  0.16208519  0.50182126  0.91904109    -0.08300
C403        C  0.14652913  0.00329975  0.93765612     0.05300
C404        C  0.10980892  0.98570041  0.93524428    -0.03300
Br405      Br  0.08019508  0.98998511  0.95829704    -0.03000
H406        H  0.06114857  0.45446651  0.91465946     0.09200
H407        H  0.19037210  0.51498614  0.92022579     0.07200
Br408      Br  0.17419109  0.47606771  0.87565552    -0.03400
C409        C  0.03919894  0.29783369  0.94176259    -0.10100
C410        C  0.03179583  0.31474033  0.96012071     0.06100
C411        C  0.01570583  0.33408112  0.95360323    -0.03800
C412        C  0.01145076  0.33962875  0.92915742    -0.08300
C413        C  0.02292574  0.32632917  0.91072159     0.05300
C414        C  0.03459007  0.30308006  0.91736930    -0.03300
Br415      Br  0.04539720  0.27821137  0.89416910    -0.03000
H416        H  0.04986783  0.28129008  0.94631522     0.09200
H417        H  0.00179342  0.35705802  0.92465135     0.07200
Br418      Br  0.50268588  0.35827600  0.97537174    -0.03400
C419        C  0.12664478  0.01511124  0.03167761    -0.10100
C420        C  0.16155788  0.02770834  0.02526415     0.06100
C421        C  0.18556310  0.03265216  0.04365901    -0.03800
C422        C  0.17544148  0.02911155  0.06788895    -0.08300
C423        C  0.14145645  0.02044912  0.07453454     0.05300
C424        C  0.11625465  0.01120623  0.05594297    -0.03300
Br425      Br  0.06759789  0.99519680  0.06144634    -0.03000
H426        H  0.10767023  0.01011354  0.01773655     0.09200
H427        H  0.19502344  0.03513955  0.08155805     0.07200
Br428      Br  0.23262785  0.04409933  0.03709199    -0.03400
C429        C  0.16634968  0.16995103  0.05404751    -0.10100
C430        C  0.14074958  0.15353755  0.03623526     0.06100
C431        C  0.11012067  0.12073708  0.04168100    -0.03800
C432        C  0.10571742  0.10489267  0.06470758    -0.08300
C433        C  0.13184147  0.12096808  0.08243555     0.05300
C434        C  0.16244951  0.15394570  0.07677298    -0.03300
Br435      Br  0.19991751  0.17894850  0.09921136    -0.03000
H436        H  0.18995115  0.19539160  0.05012715     0.09200
H437        H  0.08233818  0.07922651  0.06843690     0.07200
Br438      Br  0.07347862  0.09725205  0.01853529    -0.03400
C439        C  0.17532011  0.06436510  0.25379501    -0.10100
C440        C  0.17375144  0.05089757  0.23085134     0.06100
C441        C  0.17475351  0.01990386  0.22859149    -0.03800
C442        C  0.17829849  0.00331525  0.24916032    -0.08300
C443        C  0.18034083  0.01667611  0.27250886     0.05300
C444        C  0.17784280  0.04732372  0.27461419    -0.03300
Br445      Br  0.17664162  0.06756297  0.30465142    -0.03000
H446        H  0.17427033  0.08825347  0.25552091     0.09200
H447        H  0.23234384  0.54362940  0.26167030     0.07200
Br448      Br  0.24455792  0.57969834  0.21492560    -0.03400
C449        C  0.18265654  0.21407820  0.25234034    -0.10100
C450        C  0.17081723  0.19443255  0.27417096     0.06100
C451        C  0.15150047  0.15693417  0.27345980    -0.03800
C452        C  0.14622714  0.14012432  0.25128735    -0.08300
C453        C  0.15970806  0.16005544  0.22965998     0.05300
C454        C  0.17715070  0.19737138  0.23031528    -0.03300
Br455      Br  0.19333104  0.22696848  0.20161737    -0.03000
H456        H  0.19656215  0.24285740  0.25236542     0.09200
H457        H  0.13265075  0.11137472  0.25107340     0.07200
Br458      Br  0.13024813  0.12729722  0.30168978    -0.03400
C459        C  0.06598854  0.03559007  0.61803298    -0.10100
C460        C  0.06516866  0.02085189  0.64101901     0.06100
C461        C  0.05227741  0.03108600  0.66065723    -0.03800
C462        C  0.04981260  0.06126786  0.65802665    -0.08300
C463        C  0.06413887  0.08313733  0.63733424     0.05300
C464        C  0.06524717  0.06686129  0.61603228    -0.03300
Br465      Br  0.07179562  0.08893942  0.58467472    -0.03000
H466        H  0.07202508  0.02598449  0.60203883     0.09200
H467        H  0.04444445  0.07155858  0.67397747     0.07200
Br468      Br  0.04319852  0.01004772  0.69252011    -0.03400
C469        C  0.03837661  0.19880528  0.75570691    -0.10100
C470        C  0.04568918  0.17166968  0.75896932     0.06100
C471        C  0.03634771  0.14633514  0.74078143    -0.03800
C472        C  0.02011636  0.14863160  0.71984062    -0.08300
C473        C  0.01202429  0.17519950  0.71693852     0.05300
C474        C  0.51680286  0.20361033  0.73798517    -0.03300
Br475      Br  0.50575589  0.24024757  0.73751565    -0.03000
H476        H  0.04602670  0.21881715  0.76928122     0.09200
H477        H  0.01271121  0.12885460  0.70611993     0.07200
Br478      Br  0.04614976  0.10879799  0.74282853    -0.03400
C479        C  0.14853956  0.19962817  0.73170227    -0.10100
C480        C  0.14848599  0.17264476  0.74579165     0.06100
C481        C  0.14794811  0.14429359  0.73416364    -0.03800
C482        C  0.14496065  0.14205128  0.70902143    -0.08300
C483        C  0.14235826  0.16774296  0.69524261     0.05300
C484        C  0.14489628  0.19705623  0.70669580    -0.03300
Br485      Br  0.13771093  0.23101927  0.68964120    -0.03000
H486        H  0.14784238  0.22109394  0.74034657     0.09200
H487        H  0.14304603  0.11932837  0.70029404     0.07200
Br488      Br  0.15027158  0.10779698  0.75189773    -0.03400
C489        C  0.16568902  0.17153628  0.90364987    -0.10100
C490        C  0.13681124  0.13710421  0.90030570     0.06100
C491        C  0.12310600  0.11387537  0.92063816    -0.03800
C492        C  0.13261258  0.12751229  0.94386186    -0.08300
C493        C  0.15695539  0.16380323  0.94720024     0.05300
C494        C  0.17640870  0.18471833  0.92683822    -0.03300
Br495      Br  0.21788476  0.23098060  0.92919341    -0.03000
H496        H  0.17802987  0.18930072  0.88819194     0.09200
H497        H  0.11888392  0.11012663  0.95922436     0.07200
Br498      Br  0.08809151  0.06446706  0.91816552    -0.03400
C499        C  0.11677183  0.45652312  0.58679886    -0.10100
C500        C  0.13782834  0.47311609  0.60700166     0.06100
C501        C  0.17444250  0.48869325  0.60485076    -0.03800
C502        C  0.18922708  0.48837806  0.58281006    -0.08300
C503        C  0.16842922  0.47195448  0.56261423     0.05300
C504        C  0.13172930  0.45526469  0.56481285    -0.03300
Br505      Br  0.10139211  0.43249101  0.53812828    -0.03000
H506        H  0.08861025  0.44474531  0.58808226     0.09200
H507        H  0.21746407  0.50077544  0.58156328     0.07200
Br508      Br  0.20634583  0.51289517  0.63064714    -0.03400
C509        C  0.15721864  0.46048479  0.37454045    -0.10100
C510        C  0.17850703  0.48965647  0.35899364     0.06100
C511        C  0.20091016  0.52323280  0.36895541    -0.03800
C512        C  0.20374042  0.52638673  0.39394188    -0.08300
C513        C  0.18478850  0.49661940  0.40943892     0.05300
C514        C  0.15997057  0.46387059  0.39960931    -0.03300
Br515      Br  0.14255023  0.92089447  0.41983056    -0.03000
H516        H  0.14778541  0.93579401  0.36846717     0.09200
H517        H  0.22313763  0.55181330  0.40117570     0.07200
Br518      Br  0.23180849  0.56498802  0.34984203    -0.03400
C519        C  0.12673063  0.35007021  0.30928545    -0.10100
C520        C  0.10089425  0.34229134  0.29185728     0.06100
C521        C  0.10957795  0.36624589  0.27194138    -0.03800
C522        C  0.14004824  0.39972583  0.27282372    -0.08300
C523        C  0.16106340  0.40994843  0.29350158     0.05300
C524        C  0.15721522  0.38340114  0.30983596    -0.03300
Br525      Br  0.19026725  0.39265263  0.33501224    -0.03000
H526        H  0.12156102  0.33193055  0.32424818     0.09200
H527        H  0.14398558  0.41930687  0.25904096     0.07200
Br528      Br  0.07919606  0.35912254  0.24518159    -0.03400
C529        C  0.48274037  0.29241061  0.05123019    -0.10100
C530        C  0.51917508  0.31504210  0.04871638     0.06100
C531        C  0.53841239  0.33727172  0.06775481    -0.03800
C532        C  0.52120997  0.33644462  0.08893885    -0.08300
C533        C  0.48462217  0.31426736  0.09155056     0.05300
C534        C  0.46528361  0.29187553  0.07236799    -0.03300
Br535      Br  0.41497630  0.26227789  0.07275172    -0.03000
H536        H  0.96917461  0.28040542  0.03479079     0.09200
H537        H  0.53647436  0.35445159  0.10311828     0.07200
Br538      Br  0.58770375  0.37189987  0.06490994    -0.03400
C539        C  0.34924643  0.30323487  0.26396038    -0.10100
C540        C  0.35991266  0.32811420  0.24466993     0.06100
C541        C  0.37450903  0.36434549  0.25015734    -0.03800
C542        C  0.38234374  0.37510077  0.27403718    -0.08300
C543        C  0.37539197  0.35061207  0.29306083     0.05300
C544        C  0.35674876  0.31392311  0.28787982    -0.03300
Br545      Br  0.34288920  0.27640053  0.31166537    -0.03000
H546        H  0.33702019  0.27516572  0.26042187     0.09200
H547        H  0.39480422  0.40318013  0.27760461     0.07200
Br548      Br  0.38577552  0.40128272  0.22640817    -0.03400
C549        C  0.44957316  0.31068830  0.25279108    -0.10100
C550        C  0.44571546  0.29188672  0.23168202     0.06100
C551        C  0.46038268  0.27028108  0.23068818    -0.03800
C552        C  0.47848820  0.26783516  0.25057015    -0.08300
C553        C  0.48207259  0.28641535  0.27169038     0.05300
C554        C  0.95811188  0.29810153  0.27327653    -0.03300
Br555      Br  0.95689273  0.32038644  0.30235870    -0.03000
H556        H  0.92580281  0.31396737  0.25509484     0.09200
H557        H  0.49090277  0.25232615  0.24925000     0.07200
Br558      Br  0.45921354  0.24622459  0.20192443    -0.03400
C559        C  0.97609201  0.25302166  0.39080032    -0.10100
C560        C  0.00360107  0.27322052  0.40701502     0.06100
C561        C  0.03672597  0.29868484  0.39720561    -0.03800
C562        C  0.04142664  0.30338684  0.37212109    -0.08300
C563        C  0.01414060  0.28240494  0.35602708     0.05300
C564        C  0.98114902  0.25670953  0.36579369    -0.03300
Br565      Br  0.94254862  0.22312982  0.34661378    -0.03000
H566        H  0.95051524  0.23249007  0.39748819     0.09200
H567        H  0.06711136  0.32339882  0.36522444     0.07200
Br568      Br  0.07717397  0.32728997  0.41655099    -0.03400
C569        C  0.02215808  0.17751854  0.59478365    -0.10100
C570        C  0.49175448  0.16936726  0.58297435     0.06100
C571        C  0.45734569  0.14912006  0.59238651    -0.03800
C572        C  0.45127135  0.14960207  0.61705833    -0.08300
C573        C  0.47901672  0.17006521  0.63285283     0.05300
C574        C  0.01747248  0.17647280  0.61988162    -0.03300
Br575      Br  0.05931668  0.19852266  0.63887003    -0.03000
H576        H  0.04868045  0.19131702  0.58754923     0.09200
H577        H  0.42448127  0.13456737  0.62378016     0.07200
Br578      Br  0.41762136  0.12125992  0.57223672    -0.03400
C579        C  0.06087941  0.32767038  0.60026461    -0.10100
C580        C  0.03596851  0.30782334  0.61852957     0.06100
C581        C  0.51086756  0.28383631  0.61183398    -0.03800
C582        C  0.50556095  0.26927885  0.58876627    -0.08300
C583        C  0.02811605  0.28141816  0.57124615     0.05300
C584        C  0.05750861  0.31452400  0.57700216    -0.03300
Br585      Br  0.09332410  0.34302364  0.55349798    -0.03000
H586        H  0.08283172  0.35397621  0.60402023     0.09200
H587        H  0.48274188  0.24319616  0.58580374     0.07200
Br588      Br  0.47586927  0.25744253  0.63629686    -0.03400
C589        C  0.23269991  0.32513981  0.98077500    -0.10100
C590        C  0.24910831  0.33277423  0.00338596     0.06100
C591        C  0.22873940  0.31310846  0.02367328    -0.03800
C592        C  0.19754341  0.28090562  0.02015158    -0.08300
C593        C  0.18694823  0.26805030  0.99668080     0.05300
C594        C  0.20192322  0.29266296  0.97714998    -0.03300
Br595      Br  0.18410140  0.28379089  0.94498234    -0.03000
H596        H  0.24606182  0.34200602  0.96512116     0.09200
H597        H  0.18426997  0.26418012  0.03586448     0.07200
Br598      Br  0.24340924  0.32647918  0.05629398    -0.03400
C599        C  0.33490326  0.32961869  0.06139830    -0.10100
C600        C  0.35636081  0.35487515  0.04344280     0.06100
C601        C  0.39274608  0.37567622  0.04749656    -0.03800
C602        C  0.40673402  0.37052194  0.06868929    -0.08300
C603        C  0.38534688  0.34538253  0.08669648     0.05300
C604        C  0.34884826  0.32496116  0.08287282    -0.03300
Br605      Br  0.31618961  0.29206565  0.10665315    -0.03000
H606        H  0.30683186  0.31338051  0.05887246     0.09200
H607        H  0.43485390  0.38669735  0.07108265     0.07200
Br608      Br  0.42486584  0.41346897  0.02601957    -0.03400
C609        C  0.34397908  0.10179005  0.71528769    -0.10100
C610        C  0.32532951  0.08990265  0.69366884     0.06100
C611        C  0.33479818  0.11497976  0.67447364    -0.03800
C612        C  0.36823598  0.14555506  0.67414458    -0.08300
C613        C  0.39129364  0.15198529  0.69330270     0.05300
C614        C  0.37674165  0.13331558  0.71540596    -0.03300
Br615      Br  0.40110377  0.14661327  0.74555403    -0.03000
H616        H  0.33546156  0.08466462  0.73127185     0.09200
H617        H  0.37755336  0.16176201  0.65774372     0.07200
Br618      Br  0.30522358  0.10728406  0.64723457    -0.03400
C619        C  0.26527891  0.45720564  0.59742172    -0.10100
C620        C  0.28521372  0.99115827  0.58262474     0.06100
C621        C  0.30278436  0.02554810  0.59231461    -0.03800
C622        C  0.30715793  0.02958619  0.61712874    -0.08300
C623        C  0.29329899  0.00030617  0.63338728     0.05300
C624        C  0.26861376  0.46086076  0.62256381    -0.03300
Br625      Br  0.24978443  0.41812823  0.64203012    -0.03000
H626        H  0.25191405  0.43064620  0.59031352     0.09200
H627        H  0.32052064  0.05639365  0.62372394     0.07200
Br628      Br  0.31834693  0.06879022  0.57391510    -0.03400
C629        C  0.50429261  0.43777060  0.67256514    -0.10100
C630        C  0.48733372  0.43426977  0.65065882     0.06100
C631        C  0.50335899  0.43157985  0.62955217    -0.03800
C632        C  0.52734169  0.42039040  0.63162757    -0.08300
C633        C  0.53617957  0.41312862  0.65448542     0.05300
C634        C  0.52778201  0.42612108  0.67501124    -0.03300
Br635      Br  0.54255859  0.42458254  0.70745649    -0.03000
H636        H  0.49514989  0.44407687  0.68865662     0.09200
H637        H  0.53582966  0.41365162  0.61539241     0.07200
Br638      Br  0.49089495  0.43867798  0.59768495    -0.03400
C639        C  0.34501549  0.35804385  0.70335408    -0.10100
C640        C  0.38123463  0.37236195  0.70065240     0.06100
C641        C  0.40077687  0.37535830  0.72162416    -0.03800
C642        C  0.38495665  0.36800067  0.74441723    -0.08300
C643        C  0.34952123  0.35699863  0.74729888     0.05300
C644        C  0.32895666  0.35005839  0.72621099    -0.03300
Br645      Br  0.27929248  0.33173779  0.72651905    -0.03000
H646        H  0.32912703  0.35427507  0.68762363     0.09200
H647        H  0.40107382  0.37234522  0.76012344     0.07200
Br648      Br  0.44889224  0.38830084  0.72144483    -0.03400
C649        C  0.27353906  0.44095555  0.75944953    -0.10100
C650        C  0.30248548  0.43642513  0.75835962     0.06100
C651        C  0.32412744  0.44853734  0.73740447    -0.03800
C652        C  0.31610785  0.46402629  0.71817697    -0.08300
C653        C  0.28738799  0.46861768  0.71944625     0.05300
C654        C  0.26619746  0.45732964  0.74037566    -0.03300
Br655      Br  0.22635255  0.46267969  0.74336997    -0.03000
H656        H  0.25651036  0.43173955  0.77523524     0.09200
H657        H  0.33301041  0.47343930  0.70231556     0.07200
Br658      Br  0.36441509  0.44413492  0.73305927    -0.03400
C659        C  0.38337762  0.41971373  0.92226182    -0.10100
C660        C  0.36031932  0.39507236  0.90534406     0.06100
C661        C  0.33626397  0.35997011  0.91337992    -0.03800
C662        C  0.33303625  0.35147043  0.93805583    -0.08300
C663        C  0.35314461  0.37737133  0.95509941     0.05300
C664        C  0.37963988  0.41126340  0.94697363    -0.03300
Br665      Br  0.40741235  0.44851905  0.96890510    -0.03000
H666        H  0.40221549  0.44686030  0.91663348     0.09200
H667        H  0.31256666  0.32516176  0.94415958     0.07200
Br668      Br  0.30568192  0.32299282  0.89196519    -0.03400
C669        C  0.17581947  0.17354258  0.59109728    -0.10100
C670        C  0.16870766  0.19203842  0.60827206     0.06100
C671        C  0.18402625  0.22894468  0.60544298    -0.03800
C672        C  0.20545126  0.24660650  0.58542273    -0.08300
C673        C  0.21233512  0.22824137  0.56786957     0.06200
C674        C  0.19769204  0.19122561  0.57114291    -0.03300
Br675      Br  0.20510388  0.16273609  0.54896494    -0.03000
H676        H  0.16425342  0.14506507  0.59323721     0.09200
H677        H  0.21675014  0.27507019  0.58362365     0.07200
Br678      Br  0.17474910  0.25628632  0.62734524    -0.03400
C679        C  0.22479342  0.20201491  0.39245594    -0.10100
C680        C  0.20745226  0.20789888  0.41150816     0.06100
C681        C  0.17952655  0.21307489  0.40567330    -0.03800
C682        C  0.17181543  0.21521128  0.38147537    -0.08300
C683        C  0.19132413  0.21250740  0.36263658     0.05300
C684        C  0.21718314  0.20456131  0.36826947    -0.03300
Br685      Br  0.24600531  0.20165734  0.34387163    -0.03000
H686        H  0.24624427  0.19785384  0.39616947     0.09200
H687        H  0.15142068  0.22085011  0.37730594     0.07200
Br688      Br  0.15179288  0.21945778  0.42924086    -0.03400
C689        C  0.39273682  0.35888226  0.59251617    -0.10100
C690        C  0.37505040  0.36464442  0.61131751     0.06100
C691        C  0.34010140  0.35549897  0.60787121    -0.03800
C692        C  0.32353501  0.34046530  0.58623967    -0.08300
C693        C  0.34112534  0.33461216  0.56754842     0.05300
C694        C  0.37614006  0.34416536  0.57071144    -0.03300
Br695      Br  0.40299313  0.34021533  0.54533235    -0.03000
H696        H  0.41972230  0.36597111  0.59471236     0.09200
H697        H  0.29655126  0.33343638  0.58392623     0.07200
Br698      Br  0.31429858  0.36524460  0.63097387    -0.03400
C699        C  0.31056461  0.30390536  0.40452014    -0.10100
C700        C  0.32878019  0.30161746  0.42445156     0.06100
C701        C  0.36539432  0.31687066  0.42275411    -0.03800
C702        C  0.38308458  0.33454468  0.40135188    -0.08300
C703        C  0.36458917  0.33621581  0.38136194     0.05300
C704        C  0.32798171  0.32073298  0.38307887    -0.03300
Br705      Br  0.30033728  0.32327811  0.35738379    -0.03000
H706        H  0.28231392  0.29178835  0.40540603     0.09200
H707        H  0.41134489  0.34698676  0.40027246     0.07200
Br708      Br  0.39250745  0.31560718  0.44922673    -0.03400
C709        C  0.27698084  0.11450060  0.98946285    -0.10100
C710        C  0.25647085  0.10071208  0.96867165     0.06100
C711        C  0.27359355  0.10032423  0.94734810    -0.03800
C712        C  0.30555176  0.10184279  0.94923800    -0.08300
C713        C  0.31855997  0.61755080  0.96981230     0.05300
C714        C  0.30892608  0.11596723  0.99132907    -0.03300
Br715      Br  0.33326530  0.12982157  0.02145968    -0.03000
H716        H  0.26601940  0.11888666  0.00549707     0.09200
H717        H  0.31384922  0.61432885  0.93091777     0.07200
Br718      Br  0.25317669  0.09295734  0.91586908    -0.03400
C719        C  0.31947432  0.49264188  0.93434354    -0.10100
C720        C  0.33716589  0.52993058  0.93292773     0.06100
C721        C  0.34978704  0.54719601  0.91015319    -0.03800
C722        C  0.34544676  0.52721822  0.88977197    -0.08300
C723        C  0.32883770  0.49009457  0.89137936     0.05300
C724        C  0.31522936  0.47272060  0.91389248    -0.03300
Br725      Br  0.29397218  0.42226093  0.91842541    -0.03000
H726        H  0.30913174  0.47882874  0.95151019     0.09200
H727        H  0.35699824  0.54094544  0.87274823     0.07200
Br728      Br  0.37640983  0.59802348  0.90569643    -0.03400
C729        C  0.09542285  0.23703495  0.03268244    -0.10100
C730        C  0.08791716  0.22023402  0.01032683     0.06100
C731        C  0.10050744  0.24207357  0.98911646    -0.03800
C732        C  0.11107476  0.27784896  0.99053713    -0.08300
C733        C  0.60325609  0.29052978  0.01176194     0.05300
C734        C  0.60119032  0.27144654  0.03306937    -0.03300
Br735      Br  0.60374189  0.28957214  0.06468488    -0.03000
H736        H  0.58479972  0.21973927  0.04763550     0.09200
H737        H  0.11602556  0.29306430  0.97384789     0.07200
Br738      Br  0.09795135  0.22455042  0.95714924    -0.03400
C739        C  0.01393577  0.15041781  0.91993346    -0.10100
C740        C  0.01628124  0.12142813  0.91256990     0.06100
C741        C  0.00437478  0.09191365  0.92909751    -0.03800
C742        C  0.99826517  0.09549600  0.95336907    -0.08300
C743        C  0.00162448  0.12696643  0.96122830     0.05300
C744        C  0.00553637  0.15268286  0.94386055    -0.03300
Br745      Br  0.00278038  0.19306549  0.95274534    -0.03000
H746        H  0.02036398  0.17227627  0.90745716     0.09200
H747        H  0.99399630  0.07492970  0.96643084     0.07200
Br748      Br  0.99722886  0.04634233  0.92101229    -0.03400
C749        C  0.45280754  0.47443610  0.32438819    -0.10100
C750        C  0.44299907  0.45259118  0.34529746     0.06100
C751        C  0.44138093  0.46746809  0.36730572    -0.03800
C752        C  0.43662003  0.49643440  0.36658299    -0.08300
C753        C  0.43596663  0.51178108  0.34429375     0.05300
C754        C  0.45081260  0.50508976  0.32414446    -0.03300
Br755      Br  0.46089520  0.04190670  0.29382964    -0.03000
H756        H  0.45823210  0.46585248  0.30764731     0.09200
H757        H  0.42920807  0.50383280  0.38303780     0.07200
Br758      Br  0.44182616  0.44780290  0.39849797    -0.03400
C759        C  0.30583523  0.04609228  0.40372713    -0.10100
C760        C  0.30545972  0.02596055  0.42403173     0.06100
C761        C  0.32537290  0.00952829  0.42294318    -0.03800
C762        C  0.34423485  0.01278875  0.40179015    -0.08300
C763        C  0.34337684  0.03180896  0.38128119     0.05300
C764        C  0.32442558  0.04910919  0.38262131    -0.03300
Br765      Br  0.32432126  0.07863267  0.35668591    -0.03000
H766        H  0.29089695  0.05914362  0.40398415     0.09200
H767        H  0.35907924  0.99965189  0.40121087     0.07200
Br768      Br  0.32452545  0.47695887  0.44812735    -0.03400
C769        C  0.10432347  0.26642775  0.29963723    -0.10100
C770        C  0.09073255  0.25659330  0.32335992     0.06100
C771        C  0.11440114  0.27229396  0.34268393    -0.03800
C772        C  0.15039254  0.28907001  0.33793175    -0.08300
C773        C  0.16159588  0.28547894  0.31508424     0.05300
C774        C  0.14033745  0.28267032  0.29549713    -0.03300
Br775      Br  0.15765345  0.29171205  0.26287608    -0.03000
H776        H  0.08707687  0.25845330  0.28425404     0.09200
H777        H  0.16806199  0.29675873  0.35308230     0.07200
Br778      Br  0.10038887  0.26979185  0.37574057    -0.03400
C779        C  0.45675031  0.14141288  0.38621765    -0.10100
C780        C  0.49097421  0.15193679  0.37908587     0.06100
C781        C  0.02103319  0.16631988  0.39463565    -0.03800
C782        C  0.01144753  0.16581438  0.41872047    -0.08300
C783        C  0.47549519  0.15396657  0.42815539     0.05300
C784        C  0.44861557  0.14193095  0.41061476    -0.03300
Br785      Br  0.40160622  0.13023249  0.41770403    -0.03000
H786        H  0.43726371  0.13637389  0.37266775     0.09200
H787        H  0.03045788  0.17081343  0.43263494     0.07200
Br788      Br  0.06582885  0.17177790  0.38795836    -0.03400
C789        C  0.35105656  0.00040836  0.06128873    -0.10100
C790        C  0.33684588  0.01277670  0.07856088     0.06100
C791        C  0.31719724  0.02758045  0.07009589    -0.03800
C792        C  0.31606205  0.03366973  0.04534349    -0.08300
C793        C  0.33373070  0.02509413  0.02828077     0.05300
C794        C  0.35541352  0.52202660  0.02942040    -0.03300
Br795      Br  0.38221398  0.51232505  0.00717113    -0.03000
H796        H  0.36541117  0.98793980  0.06708715     0.09200
H797        H  0.30223079  0.04664129  0.03950992     0.07200
Br798      Br  0.29260913  0.04204010  0.09084435    -0.03400
C799        C  0.50454068  0.11819044  0.06849953    -0.10100
C800        C  0.98919293  0.11848341  0.05102323     0.06100
C801        C  0.45016517  0.10739540  0.05085875    -0.03800
C802        C  0.43406130  0.09639186  0.07362725    -0.08300
C803        C  0.45262468  0.09570319  0.09397510     0.05300
C804        C  0.48835342  0.10709954  0.09127286    -0.03300
Br805      Br  0.51662318  0.10987233  0.11823232    -0.03000
H806        H  0.53220472  0.12739158  0.06683461     0.09200
H807        H  0.40645125  0.08741294  0.07528010     0.07200
Br808      Br  0.92702571  0.11070601  0.02693399    -0.03400
C809        C  0.33659069  0.04093337  0.28347728    -0.10100
C810        C  0.34750414  0.01837104  0.29251164     0.06100
C811        C  0.35011256  0.99535552  0.27644764    -0.03800
C812        C  0.34773753  0.99947216  0.25151825    -0.08300
C813        C  0.34195639  0.02582210  0.24204700     0.05300
C814        C  0.33358358  0.04476506  0.25851736    -0.03300
Br815      Br  0.32370927  0.08078151  0.24873397    -0.03000
H816        H  0.33369491  0.05820359  0.29563560     0.09200
H817        H  0.35300702  0.98372651  0.23944470     0.07200
Br818      Br  0.37125765  0.46340791  0.28086118    -0.03400
C819        C  0.50093026  0.15189275  0.26930640    -0.10100
C820        C  0.47933719  0.14645311  0.28951972     0.06100
C821        C  0.44279210  0.12783796  0.28667571    -0.03800
C822        C  0.42872966  0.11640984  0.26381223    -0.08300
C823        C  0.45026977  0.12264691  0.24345741     0.05300
C824        C  0.48675181  0.14004867  0.24645496    -0.03300
Br825      Br  0.51849367  0.15107010  0.21983192    -0.03000
H826        H  0.52920036  0.16633560  0.27116084     0.09200
H827        H  0.40061364  0.10299010  0.26187115     0.07200
Br828      Br  0.41098139  0.12002241  0.31265859    -0.03400
O829        O  0.33273227  0.59244681  0.16570024    -0.81800
O830        O  0.43249278  0.53455641  0.18553471    -0.66500
O831        O  0.39440660  0.59107967  0.16542704    -1.13100
C832        C  0.34906988  0.52141334  0.09782012     1.05100
O833        O  0.41910486  0.49830665  0.15441610    -0.79700
O834        O  0.43463019  0.55418327  0.12333916    -0.67300
Ni835      Ni  0.37097030  0.60449415  0.18746782     1.34900
C836        C  0.43227513  0.57924398  0.11346916     0.83800
O837        O  0.44213737  0.59700663  0.19985813    -0.80200
O838        O  0.40762696  0.61820013  0.21052389    -0.90500
C839        C  0.43399146  0.51039732  0.17437590     0.83400
O840        O  0.34390256  0.55992150  0.20457802    -0.68700
O841        O  0.37219141  0.51363563  0.10220775    -0.88000
C842        C  0.35565923  0.54157341  0.21380380     0.84200
C843        C  0.43366636  0.61416092  0.21405151     1.05800
H844        H  0.35811201  0.50975194  0.16160686     0.37600
O845        O  0.37835272  0.52877089  0.15318590    -1.10600
O846        O  0.40689697  0.58424897  0.11792636    -0.67300
Ni847      Ni  0.36640682  0.56197088  0.13999390     1.26300
O848        O  0.37941599  0.53863947  0.20326695    -0.67500
O849        O  0.33772188  0.53234082  0.11441118    -0.79800
C850        C  0.33778061  0.60431592  0.14405396     0.83600
O851        O  0.35506377  0.59692915  0.12955997    -0.67000
Ni852      Ni  0.39475911  0.50838625  0.13028090     1.27400
Ni853      Ni  0.41185950  0.56229778  0.17649443     1.26100
H854        H  0.41387927  0.61276696  0.15856916     0.38200
C855        C  0.50266646  0.67621637  0.34795228     0.79300
N856        N  0.48481341  0.65918403  0.32775958    -0.79000
C857        C  0.49743597  0.67463482  0.30550687     0.81800
N858        N  0.02208205  0.70362483  0.30509725    -0.78900
C859        C  0.03925066  0.72194321  0.32487205     0.81900
N860        N  0.02660298  0.70695885  0.34687320    -0.80600
C861        C  0.36210119  0.52537138  0.35708286     0.79300
N862        N  0.34960264  0.52375485  0.33423534    -0.79000
C863        C  0.36687249  0.52117265  0.31476733     0.81800
N864        N  0.39666373  0.52074448  0.31843670    -0.78900
C865        C  0.40952711  0.03121196  0.34127071     0.81900
N866        N  0.39313516  0.03398335  0.36095346    -0.80600
C867        C  0.01377849  0.64586488  0.98312144     0.79300
N868        N  0.04648212  0.67393260  0.98637239    -0.79000
C869        C  0.06011993  0.68467578  0.00844299     0.81800
N870        N  0.04018896  0.66624158  0.02794767    -0.78900
C871        C  0.00730859  0.63759832  0.02535499     0.81900
N872        N  0.99374884  0.62732184  0.00276779    -0.80600
C873        C  0.33717458  0.03918083  0.00305216     0.79300
N874        N  0.33509432  0.58183450  0.99463391    -0.79000
C875        C  0.33532188  0.08124068  0.97672203     0.81800
N876        N  0.34191700  0.06649612  0.95787774    -0.78900
C877        C  0.34610505  0.03839034  0.96115375     0.81900
N878        N  0.34309915  0.02423832  0.98377270    -0.80600
O879        O  0.21645667  0.80075711  0.49787562    -0.81800
O880        O  0.29533576  0.71915122  0.51838619    -0.66500
O881        O  0.27245064  0.78775633  0.49484043    -1.13100
C882        C  0.21895004  0.71236139  0.43072730     1.05100
O883        O  0.30515019  0.70535761  0.48199698    -0.79700
O884        O  0.30942002  0.75460560  0.44939476    -0.67300
Ni885      Ni  0.25662013  0.81014029  0.51629984     1.34900
C886        C  0.30435733  0.77828192  0.44042122     0.83800
O887        O  0.31382492  0.78454848  0.53245141    -0.80200
O888        O  0.29443022  0.82202991  0.53769092    -0.90500
C889        C  0.30624519  0.70375857  0.50485680     0.83400
O890        O  0.22657737  0.76957760  0.53573590    -0.68700
O891        O  0.24387973  0.70658820  0.43367665    -0.88000
C892        C  0.22563587  0.74088740  0.54059114     0.84200
C893        C  0.31349639  0.80946600  0.54352124     1.05800
H894        H  0.23328537  0.70436455  0.48948727     0.37600
O895        O  0.25361955  0.72461601  0.48249821    -1.10600
O896        O  0.27795912  0.78058752  0.44642863    -0.67300
Ni897      Ni  0.24079661  0.75767175  0.47068925     1.26300
O898        O  0.24555466  0.73190506  0.53064151    -0.67500
O899        O  0.21014572  0.72639076  0.44685927    -0.79800
C900        C  0.21209398  0.80133806  0.47537531     0.83600
O901        O  0.22646199  0.79074595  0.46068913    -0.67000
Ni902      Ni  0.27357443  0.70801828  0.45945618     1.27400
Ni903      Ni  0.28398907  0.75408086  0.50755197     1.26100
H904        H  0.29330865  0.80673161  0.48700089     0.38200
O905        O  0.24448368  0.84098794  0.82452975    -0.81800
O906        O  0.40851392  0.93919662  0.79595473    -0.66500
O907        O  0.31721081  0.87113725  0.82308459    -1.13100
C908        C  0.34567313  0.96868660  0.87450147     1.05100
O909        O  0.42943357  0.95068736  0.83273141    -0.79700
O910        O  0.39166194  0.93187870  0.87423147    -0.67300
Ni911      Ni  0.27890367  0.84692366  0.80121525     1.34900
C912        C  0.36427926  0.90364446  0.88176402     0.83800
O913        O  0.36159336  0.87101238  0.78690283    -0.80200
O914        O  0.30691168  0.84761103  0.77466626    -0.90500
C915        C  0.43455478  0.95322804  0.81013572     0.83400
O916        O  0.28452625  0.89056957  0.78928340    -0.68700
O917        O  0.37685271  0.98264268  0.86626922    -0.88000
C918        C  0.31221395  0.91529596  0.77878711     0.84200
C919        C  0.33831845  0.85607210  0.77087085     1.05800
H920        H  0.35778989  0.95383504  0.82054579     0.37600
O921        O  0.36093955  0.93700286  0.82995319    -1.10600
O922        O  0.33512607  0.88913676  0.87058172    -0.67300
Ni923      Ni  0.31666581  0.90493454  0.84484000     1.26300
O924        O  0.34261941  0.92060264  0.78344693    -0.67500
O925        O  0.31942207  0.93991706  0.86669330    -0.79800
C926        C  0.24256677  0.84994520  0.84580677     0.83600
O927        O  0.26961439  0.87217539  0.85759801    -0.67000
Ni928      Ni  0.40127240  0.96538405  0.84871756     1.27400
Ni929      Ni  0.36206056  0.90447323  0.80848170     1.26100
H930        H  0.31934653  0.85345943  0.83224675     0.38200
C931        C  0.39303829  0.87247338  0.67427623     0.79300
N932        N  0.42752889  0.89719438  0.67151025    -0.79000
C933        C  0.44317673  0.90662605  0.64939542     0.81800
N934        N  0.42337541  0.89119084  0.62976618    -0.78900
C935        C  0.38846873  0.86713237  0.63191017     0.81900
N936        N  0.37344206  0.85749448  0.65431988    -0.80600
C937        C  0.28292491  0.50194270  0.65850824     0.79300
N938        N  0.29175165  0.98480269  0.67742078    -0.79000
C939        C  0.29588608  0.99471274  0.70090570     0.81800
N940        N  0.28863146  0.52174412  0.70522064    -0.78900
C941        C  0.29114763  0.54449984  0.68732996     0.81900
N942        N  0.28771391  0.53385274  0.66430531    -0.80600
C943        C  0.34171945  0.86211666  0.02315544     0.79300
N944        N  0.30742921  0.85266509  0.02381798    -0.79000
C945        C  0.29074702  0.85325521  0.00350850     0.81800
N946        N  0.30871456  0.86277406  0.98239603    -0.78900
C947        C  0.34234789  0.87118565  0.98097378     0.81900
N948        N  0.35904697  0.87063565  0.00140991    -0.80600
O949        O  0.08924424  0.77034107  0.50350865    -0.81800
O950        O  0.42989857  0.70141804  0.52502427    -0.66500
O951        O  0.01725617  0.71668825  0.50221049    -1.13100
C952        C  0.99305467  0.76430475  0.43369383     1.05100
O953        O  0.40780147  0.67741260  0.48999423    -0.79700
O954        O  0.44723216  0.67472439  0.45452432    -0.67300
Ni955      Ni  0.05614027  0.72894590  0.52260426     1.34900
C956        C  0.47574332  0.68070613  0.44520386     0.83800
O957        O  0.47236602  0.68009983  0.54359203    -0.80200
O958        O  0.02728452  0.68929516  0.54433903    -0.90500
C959        C  0.40373372  0.68536355  0.51107973     0.83400
O960        O  0.04997125  0.75862430  0.54371798    -0.68700
O961        O  0.46542793  0.74073236  0.43871594    -0.88000
C962        C  0.02583996  0.76508215  0.54760204     0.84200
C963        C  0.49413583  0.67347642  0.55368891     1.05800
H964        H  0.47915533  0.75545924  0.49130996     0.37600
O965        O  0.47694115  0.73332800  0.48676263    -1.10600
O966        O  0.00524160  0.70868662  0.45288619    -0.67300
Ni967      Ni  0.02040960  0.74702045  0.47541035     1.26300
O968        O  0.49764793  0.74896867  0.53492398    -0.67500
O969        O  0.01890364  0.77431250  0.44818050    -0.79800
C970        C  0.09368428  0.77606374  0.48082149     0.83600
O971        O  0.06805528  0.76164811  0.46625601    -0.67000
Ni972      Ni  0.43835729  0.71015738  0.46540885     1.27400
Ni973      Ni  0.47413226  0.70675513  0.51528528     1.26100
H974        H  0.01135378  0.69410921  0.49565786     0.38200
O975        O  0.35265048  0.72408658  0.17094829    -0.81800
O976        O  0.44798612  0.89014519  0.19167374    -0.66500
O977        O  0.38047399  0.79746763  0.16939311    -1.13100
C978        C  0.47015905  0.82357546  0.11077288     1.05100
O979        O  0.46124413  0.91366887  0.15484731    -0.79700
O980        O  0.43258741  0.87280801  0.11632975    -0.67300
Ni981      Ni  0.36055164  0.76002796  0.19363780     1.34900
C982        C  0.40439999  0.84496107  0.11034887     0.83800
O983        O  0.38266034  0.84369773  0.20406782    -0.80200
O984        O  0.36345438  0.79002526  0.21958844    -0.90500
C985        C  0.46024201  0.91687349  0.17746142     0.83400
O986        O  0.40515864  0.76714471  0.20322025    -0.68700
O987        O  0.48247007  0.85581611  0.11640363    -0.88000
C988        C  0.42965438  0.79628378  0.21167562     0.84200
C989        C  0.37123903  0.82200418  0.22181794     1.05800
H990        H  0.46205374  0.83888292  0.16608089     0.37600
O991        O  0.44459105  0.84177358  0.15781048    -1.10600
O992        O  0.39277995  0.81461113  0.12071072    -0.67300
Ni993      Ni  0.41095515  0.79625256  0.14514452     1.26300
O994        O  0.43317669  0.82610323  0.20548633    -0.67500
O995        O  0.44310833  0.79732205  0.12109609    -0.79800
C996        C  0.35575401  0.72195209  0.14831620     0.83600
O997        O  0.37593799  0.74892711  0.13477533    -0.67000
Ni998      Ni  0.47021390  0.88216749  0.13681408     1.27400
Ni999      Ni  0.41409172  0.84340876  0.18108693     1.26100
H1000       H  0.36163266  0.79866640  0.16174111     0.38200
C1001       C  0.39861447  0.87629926  0.31842623     0.79300
N1002       N  0.42149397  0.91161420  0.32133320    -0.79000
C1003       C  0.42792151  0.92593823  0.34363245     0.81800
N1004       N  0.41026301  0.90448662  0.36288028    -0.78900
C1005       C  0.38729414  0.86931538  0.36026406     0.81900
N1006       N  0.38142204  0.85525768  0.33800144    -0.80600
C1007       C  0.02414287  0.80044596  0.33219112     0.79300
N1008       N  0.50740171  0.79410305  0.31374133    -0.79000
C1009       C  0.01472161  0.80157072  0.29033483     0.81800
N1010       N  0.04966556  0.81689550  0.28629170    -0.78900
C1011       C  0.07200544  0.82404020  0.30473264     0.81900
N1012       N  0.05892228  0.81594271  0.32753031    -0.80600
O1013       O  0.28869150  0.58158150  0.48515477    -0.81800
O1014       O  0.21269712  0.92521825  0.46603197    -0.66500
O1015       O  0.22897112  0.51304891  0.48582938    -1.13100
C1016       C  0.26436803  0.48108662  0.55619234     1.05100
O1017       O  0.18370602  0.90201522  0.50042119    -0.79700
O1018       O  0.18451039  0.94454598  0.53614644    -0.67300
Ni1019     Ni  0.24821473  0.55402667  0.46543566     1.34900
C1020       C  0.19402400  0.97494602  0.54431018     0.83800
O1021       O  0.20216723  0.97597986  0.44655890    -0.80200
O1022       O  0.20912944  0.52952969  0.44442391    -0.90500
C1023       C  0.19228134  0.89807904  0.47930661     0.83400
O1024       O  0.27527647  0.54355330  0.44417371    -0.68700
O1025       O  0.24603966  0.95360440  0.55287838    -0.88000
C1026       C  0.28035559  0.51786877  0.44204961     0.84200
C1027       C  0.19933879  0.00099218  0.43702001     1.05800
H1028       H  0.26518682  0.96768234  0.50043008     0.37600
O1029       O  0.24484725  0.96879603  0.50453115    -1.10600
O1030       O  0.21515832  0.49920505  0.53467764    -0.67300
Ni1031     Ni  0.25441389  0.51223522  0.51342512     1.26300
O1032       O  0.26714299  0.99318041  0.45778424    -0.67500
O1033       O  0.27753286  0.50724235  0.54099287    -0.79800
C1034       C  0.28782402  0.58645139  0.50758402     0.83600
O1035       O  0.27016544  0.56040144  0.52215998    -0.67000
Ni1036     Ni  0.21588892  0.92963564  0.52580520     1.27400
Ni1037     Ni  0.22301120  0.97164936  0.47574130     1.26100
H1038       H  0.20666391  0.50902108  0.49138668     0.38200
O1039       O  0.05625646  0.56654431  0.83274633    -0.81800
O1040       O  0.11686586  0.71928439  0.86205839    -0.66500
O1041       O  0.05417770  0.62785479  0.83504570    -1.13100
C1042       C  0.13223453  0.67443347  0.76773960     1.05100
O1043       O  0.11385691  0.74255766  0.82746918    -0.79700
O1044       O  0.08442610  0.70731032  0.78662779    -0.67300
Ni1045     Ni  0.03553932  0.58514604  0.85358586     1.34900
C1046       C  0.06015597  0.67701580  0.77985804     0.83800
O1047       O  0.05281032  0.66094366  0.87733237    -0.80200
O1048       O  0.01391260  0.60186884  0.87514198    -0.90500
C1049       C  0.12538853  0.74666066  0.84878055     0.83400
O1050       O  0.07196663  0.59891683  0.87664826    -0.68700
O1051       O  0.14153958  0.70480307  0.77623585    -0.88000
C1052       C  0.09929547  0.62823708  0.88157071     0.84200
C1053       C  0.02548089  0.63181642  0.88510409     1.05800
H1054       H  0.13437149  0.68094306  0.82664992     0.37600
O1055       O  0.11317328  0.67998488  0.82158511    -1.10600
O1056       O  0.05647722  0.64794578  0.78779680    -0.67300
Ni1057     Ni  0.08342024  0.63458879  0.80757912     1.26300
O1058       O  0.11027934  0.65616912  0.86839640    -0.67500
O1059       O  0.11313845  0.64495593  0.77949322    -0.79800
C1060       C  0.04600903  0.56014293  0.81107804     0.83600
O1061       O  0.05257778  0.58611072  0.79681807    -0.67000
Ni1062     Ni  0.12740683  0.72204478  0.80272998     1.27400
Ni1063     Ni  0.08429873  0.67212771  0.84972826     1.26100
H1064       H  0.03407051  0.62860599  0.82938988     0.38200
C1065       C  0.12692096  0.65995654  0.66536406     0.79300
N1066       N  0.14760349  0.68011082  0.64641841    -0.79000
C1067       C  0.13804559  0.66836135  0.62346208     0.81800
N1068       N  0.10861727  0.63629092  0.61978479    -0.78900
C1069       C  0.08805538  0.61598732  0.63855457     0.81900
N1070       N  0.09760843  0.62833756  0.66115634    -0.80600
C1071       C  0.46137657  0.65188282  0.65486002     0.79300
N1072       N  0.42906447  0.64652188  0.65997113    -0.79000
C1073       C  0.41886808  0.64696516  0.68300975     0.81800
N1074       N  0.44133154  0.65240601  0.70108691    -0.78900
C1075       C  0.47370422  0.65817465  0.69661022     0.81900
N1076       N  0.98993156  0.66992920  0.67350444    -0.80600
O1077       O  0.05197527  0.53756316  0.15285316    -0.81800
O1078       O  0.21363907  0.60913475  0.12711833    -0.66500
O1079       O  0.11863516  0.54621372  0.15028414    -1.13100
C1080       C  0.15092404  0.63946139  0.20611321     1.05100
O1081       O  0.23176684  0.61930382  0.16485053    -0.79700
O1082       O  0.19345148  0.60404092  0.20533642    -0.67300
Ni1083     Ni  0.07951479  0.53001899  0.12966743     1.34900
C1084       C  0.16886079  0.57224634  0.20937077     0.83800
O1085       O  0.16012430  0.54428879  0.11301309    -0.80200
O1086       O  0.10322478  0.52109081  0.10443329    -0.90500
C1087       C  0.23840538  0.62068805  0.14250678     0.83400
O1088       O  0.09342095  0.57499733  0.11522618    -0.68700
O1089       O  0.18040190  0.65588973  0.19501137    -0.88000
C1090       C  0.12310856  0.59772877  0.10625154     0.84200
C1091       C  0.13372683  0.52737535  0.09908238     1.05800
H1092       H  0.16127719  0.62627421  0.15178462     0.37600
O1093       O  0.16503034  0.60918675  0.16028505    -1.10600
O1094       O  0.14124569  0.55641241  0.19669530    -0.67300
Ni1095     Ni  0.12135655  0.57638854  0.17561953     1.26300
O1096       O  0.15159637  0.59984561  0.11253453    -0.67500
O1097       O  0.12618172  0.60802116  0.20106836    -0.79800
C1098       C  0.04869975  0.52985949  0.17525070     0.83600
O1099       O  0.07563890  0.54112887  0.18848703    -0.67000
Ni1100     Ni  0.20488685  0.63694770  0.17920970     1.27400
Ni1101     Ni  0.16473033  0.57734779  0.13708746     1.26100
H1102       H  0.11783914  0.52547560  0.15719323     0.38200
C1103       C  0.16380562  0.71247294  0.29364522     0.79300
N1104       N  0.15861453  0.74020695  0.29316202    -0.79000
C1105       C  0.16294213  0.75925446  0.31313590     0.81800
N1106       N  0.17247261  0.74994606  0.33385895    -0.78900
C1107       C  0.17778099  0.72239171  0.33483003     0.81900
N1108       N  0.17329139  0.70337337  0.31469165    -0.80600
C1109       C  0.18602065  0.98575215  0.33508175     0.79300
N1110       N  0.18654362  0.95623808  0.32970964    -0.79000
C1111       C  0.18628446  0.94672362  0.30670242     0.81800
N1112       N  0.18522550  0.96741020  0.28876411    -0.78900
C1113       C  0.18130322  0.50176654  0.29244055     0.81900
N1114       N  0.18081942  0.50787464  0.31626797    -0.80600
C1115       C  0.14916376  0.67426390  0.97510621     0.79300
N1116       N  0.16558066  0.71032873  0.97499901    -0.79000
C1117       C  0.16893308  0.72780984  0.99563582     0.81800
N1118       N  0.15646855  0.70880272  0.01650660    -0.78900
C1119       C  0.14034932  0.67302307  0.01714196     0.81900
N1120       N  0.13648119  0.65558707  0.99632636    -0.80600
O1121       O  0.14893464  0.87214343  0.82316832    -0.81800
O1122       O  0.04558610  0.92850073  0.79695708    -0.66500
O1123       O  0.11659958  0.91240062  0.82206778    -1.13100
C1124       C  0.03721040  0.84838165  0.88527501     1.05100
O1125       O  0.02509320  0.93176956  0.83271057    -0.79700
O1126       O  0.06829409  0.93697196  0.86851679    -0.67300
Ni1127     Ni  0.14052323  0.89942466  0.79959833     1.34900
C1128       C  0.09455470  0.93651898  0.87696132     0.83800
O1129       O  0.11183148  0.95444845  0.78548533    -0.80200
O1130       O  0.13728957  0.92610742  0.77243343    -0.90500
C1131       C  0.02955520  0.93873087  0.81027062     0.83400
O1132       O  0.09742608  0.85819021  0.79114803    -0.68700
O1133       O  0.02506431  0.86818559  0.88041430    -0.88000
C1134       C  0.07506946  0.86087534  0.77869735     0.84200
C1135       C  0.12750120  0.94832596  0.76902042     1.05800
H1136       H  0.03384770  0.86382532  0.82521682     0.37600
O1137       O  0.05123894  0.88530410  0.83293533    -1.10600
O1138       O  0.10323401  0.91449729  0.87021236    -0.67300
Ni1139     Ni  0.08652136  0.87745552  0.84625183     1.26300
O1140       O  0.06569520  0.88299660  0.78410161    -0.67500
O1141       O  0.05589917  0.84364612  0.87031572    -0.79800
C1142       C  0.14211112  0.86253111  0.84522574     0.83600
O1143       O  0.12150694  0.86774122  0.85787381    -0.67000
Ni1144     Ni  0.02700129  0.89887671  0.85482911     1.27400
Ni1145     Ni  0.08097839  0.91969148  0.80875757     1.26100
H1146       H  0.13394923  0.93397162  0.82971020     0.38200
C1147       C  0.05313051  0.83966470  0.63689752     0.79300
N1148       N  0.05513466  0.82750260  0.65946496    -0.79000
C1149       C  0.05527107  0.84562325  0.67920667     0.81800
N1150       N  0.05260200  0.87461126  0.67617167    -0.78900
C1151       C  0.54424057  0.88026538  0.65489669     0.81900
N1152       N  0.54486234  0.86245627  0.63547459    -0.80600
C1153       C  0.12532307  0.98877477  0.62792981     0.79300
N1154       N  0.09899301  0.48917707  0.62624221    -0.79000
C1155       C  0.08666758  0.49774397  0.64569592     0.81800
N1156       N  0.09566423  0.99928349  0.66690289    -0.78900
C1157       C  0.11936728  0.98905492  0.67021656     0.81900
N1158       N  0.13448680  0.98431912  0.65054194    -0.80600
C1159       C  0.55221740  0.81851428  0.98564615     0.79300
N1160       N  0.53463426  0.81971135  0.00527190    -0.79000
C1161       C  0.54439193  0.81581977  0.02782549     0.81800
N1162       N  0.57101737  0.80960420  0.03064948    -0.78900
C1163       C  0.58857751  0.80797136  0.01119113     0.81900
N1164       N  0.57882419  0.81247891  0.98883088    -0.80600
C1165       C  0.17032176  0.53461048  0.00003456     0.79300
N1166       N  0.20160340  0.56501062  0.99602735    -0.79000
C1167       C  0.21363619  0.57738488  0.97330924     0.81800
N1168       N  0.19382879  0.55846783  0.95444378    -0.78900
C1169       C  0.16199318  0.52845474  0.95801700     0.81900
N1170       N  0.15025271  0.51643633  0.98094225    -0.80600
C1171       C  0.45653686  0.49723828  0.18298539     0.79300
N1172       N  0.44991163  0.96448000  0.18707635    -0.79000
C1173       C  0.47261673  0.95265906  0.18642291     0.81800
N1174       N  0.00686660  0.97528785  0.18519256    -0.78900
C1175       C  0.01257489  0.50657764  0.18452668     0.81900
N1176       N  0.98996146  0.51865506  0.18344291    -0.80600
C1177       C  0.31931171  0.68132666  0.51484859     0.79300
N1178       N  0.29723074  0.64542091  0.51404179    -0.79000
C1179       C  0.30954527  0.62300225  0.51613884     0.81800
N1180       N  0.34458093  0.63687513  0.51787309    -0.78900
C1181       C  0.36734663  0.67254241  0.51860621     0.81900
N1182       N  0.35460248  0.69474988  0.51624178    -0.80600
C1183       C  0.18821752  0.81353490  0.46775403     0.79300
N1184       N  0.20046645  0.84903148  0.46878726    -0.79000
C1185       C  0.17810142  0.86114992  0.47122551     0.81800
N1186       N  0.14301125  0.83706055  0.47366697    -0.78900
C1187       C  0.13002873  0.80148654  0.47214337     0.81900
N1188       N  0.15298210  0.79002008  0.47003102    -0.80600
C1189       C  0.01692209  0.96144801  0.80086173     0.79300
N1190       N  0.48541902  0.94877528  0.80240333    -0.79000
C1191       C  0.47126455  0.96957484  0.80163855     0.81800
N1192       N  0.49000572  0.50677447  0.80347734    -0.78900
C1193       C  0.02331056  0.52233470  0.80430453     0.81900
N1194       N  0.03623891  0.50020963  0.80552967    -0.80600
C1195       C  0.15678913  0.84155362  0.85499208     0.79300
N1196       N  0.19220115  0.85586837  0.85414424    -0.79000
C1197       C  0.20626218  0.83483329  0.85533386     0.81800
N1198       N  0.18400596  0.79870776  0.85578457    -0.78900
C1199       C  0.14843235  0.78376502  0.85680253     0.81900
N1200       N  0.13529596  0.80556372  0.85582039    -0.80600
C1201       C  0.32443728  0.62768446  0.13697150     0.79300
N1202       N  0.34647090  0.66355076  0.13861977    -0.79000
C1203       C  0.33378662  0.68578115  0.13848472     0.81800
N1204       N  0.29834505  0.67136107  0.13775355    -0.78900
C1205       C  0.27577681  0.63563665  0.13575183     0.81900
N1206       N  0.28908666  0.61391550  0.13632821    -0.80600
C1207       C  0.14046958  0.94982195  0.72507671    -0.10100
C1208       C  0.13138600  0.96419095  0.74423765     0.06100
C1209       C  0.12221009  0.98979682  0.73851053    -0.03800
C1210       C  0.12129639  0.99932841  0.71437400    -0.08300
C1211       C  0.12780009  0.98293763  0.69523574     0.05300
C1212       C  0.13839298  0.95846754  0.70091885    -0.03300
Br1213     Br  0.14694690  0.93268198  0.67708931    -0.03000
H1214       H  0.14728562  0.92990870  0.72872320     0.09200
H1215       H  0.11365349  0.01857369  0.71055872     0.07200
Br1216     Br  0.10825119  0.01148643  0.76214413    -0.03400
C1217       C  0.03273174  0.83413892  0.74470139    -0.10100
C1218       C  0.06522821  0.84351170  0.75476783     0.06100
C1219       C  0.09081961  0.84316700  0.73963091    -0.03800
C1220       C  0.08550606  0.83897186  0.71465595    -0.08300
C1221       C  0.05451596  0.83353061  0.70441753     0.05300
C1222       C  0.02703108  0.82822739  0.71989345    -0.03300
Br1223     Br  0.47700735  0.81366081  0.71083158    -0.03000
H1224       H  0.01242585  0.83336864  0.75586268     0.09200
H1225       H  0.10691684  0.84323483  0.70301786     0.07200
Br1226     Br  0.13584629  0.85328360  0.75080701    -0.03400
C1227       C  0.09381708  0.96491004  0.91503262    -0.10100
C1228       C  0.11358236  0.96063461  0.89707991     0.06100
C1229       C  0.15020220  0.97784501  0.89966955    -0.03800
C1230       C  0.16624412  0.99902894  0.91967282    -0.08300
C1231       C  0.14296700  0.50670461  0.93708550     0.05300
C1232       C  0.10637445  0.49012879  0.93491078    -0.03300
Br1233     Br  0.07857582  0.49876343  0.95697054    -0.03000
H1234       H  0.06553731  0.95144736  0.91355347     0.09200
H1235       H  0.19446075  0.01203478  0.92125440     0.07200
Br1236     Br  0.17988549  0.97484283  0.87604383    -0.03400
C1237       C  0.04942439  0.80821748  0.94281574    -0.10100
C1238       C  0.04626536  0.82925799  0.96027936     0.06100
C1239       C  0.03419037  0.85179764  0.95287032    -0.03800
C1240       C  0.02803915  0.85468470  0.92847978    -0.08300
C1241       C  0.03377093  0.83566557  0.91075850     0.05300
C1242       C  0.04274708  0.81074204  0.91838878    -0.03300
Br1243     Br  0.04581227  0.77915517  0.89656021    -0.03000
H1244       H  0.05773334  0.78996854  0.94811468     0.09200
H1245       H  0.02110077  0.87408440  0.92328735     0.07200
Br1246     Br  0.52962452  0.87728514  0.97665603    -0.03400
C1247       C  0.12400402  0.51255941  0.03145993    -0.10100
C1248       C  0.15824147  0.52262869  0.02513625     0.06100
C1249       C  0.18156264  0.52573283  0.04346387    -0.03800
C1250       C  0.17199950  0.52380294  0.06775746    -0.08300
C1251       C  0.13903900  0.51826483  0.07427344     0.05300
C1252       C  0.11403850  0.51023186  0.05562983    -0.03300
Br1253     Br  0.06670296  0.49940493  0.06050397    -0.03000
H1254       H  0.10557826  0.50916191  0.01747244     0.09200
H1255       H  0.19118002  0.52859665  0.08148603     0.07200
Br1256     Br  0.22677621  0.53276435  0.03618973    -0.03400
C1257       C  0.15662498  0.67178475  0.05951437    -0.10100
C1258       C  0.13244643  0.65475173  0.04090105     0.06100
C1259       C  0.10246036  0.62105328  0.04548342    -0.03800
C1260       C  0.09841144  0.60409051  0.06789307    -0.08300
C1261       C  0.12416553  0.62001216  0.08575741     0.05300
C1262       C  0.15284163  0.65470998  0.08173209    -0.03300
Br1263     Br  0.18768593  0.68000875  0.10577802    -0.03000
H1264       H  0.17949252  0.69808121  0.05648292     0.09200
H1265       H  0.07599146  0.57749077  0.07083783     0.07200
Br1266     Br  0.06632759  0.59718491  0.02204152    -0.03400
C1267       C  0.14388970  0.53634374  0.24686726    -0.10100
C1268       C  0.17231293  0.55413176  0.23067633     0.06100
C1269       C  0.20470298  0.55750097  0.23643810    -0.03800
C1270       C  0.20796896  0.54256026  0.25790712    -0.08300
C1271       C  0.17955601  0.52459033  0.27390866     0.05300
C1272       C  0.14733968  0.52159986  0.26845773    -0.03300
Br1273     Br  0.10688820  0.49566567  0.28916847    -0.03000
H1274       H  0.11909399  0.53418556  0.24280889     0.09200
H1275       H  0.17961236  0.97974810  0.24657619     0.07200
Br1276     Br  0.17336095  0.00042044  0.19767749    -0.03400
C1277       C  0.16531205  0.71072409  0.24910602    -0.10100
C1278       C  0.15740560  0.69208021  0.27135643     0.06100
C1279       C  0.14240212  0.65482508  0.27139207    -0.03800
C1280       C  0.13739173  0.63754307  0.24950330    -0.08300
C1281       C  0.14744090  0.65673607  0.22746276     0.05300
C1282       C  0.16073956  0.69352396  0.22736245    -0.03300
Br1283     Br  0.17357504  0.72164742  0.19802532    -0.03000
H1284       H  0.17614750  0.73917467  0.24859202     0.09200
H1285       H  0.12744042  0.60924200  0.24982689     0.07200
Br1286     Br  0.12771220  0.62579041  0.30035744    -0.03400
C1287       C  0.06658302  0.52903515  0.61865926    -0.10100
C1288       C  0.06718104  0.51634859  0.64209543     0.06100
C1289       C  0.05570801  0.52837550  0.66153055    -0.03800
C1290       C  0.05138410  0.55721088  0.65765193    -0.08300
C1291       C  0.06345825  0.57718297  0.63598281     0.05300
C1292       C  0.06512441  0.55977042  0.61544098    -0.03300
Br1293     Br  0.07071096  0.57908337  0.58324841    -0.03000
H1294       H  0.07194838  0.51820698  0.60302455     0.09200
H1295       H  0.04616434  0.56836330  0.67318969     0.07200
Br1296     Br  0.05136373  0.51234730  0.69459258    -0.03400
C1297       C  0.05218400  0.70396351  0.74249272    -0.10100
C1298       C  0.03759365  0.67589146  0.75984485     0.06100
C1299       C  0.00396712  0.64598839  0.75578147    -0.03800
C1300       C  0.98605523  0.64464623  0.73476486    -0.08300
C1301       C  0.00100764  0.67236383  0.71737322     0.05300
C1302       C  0.52918057  0.69250340  0.72059934    -0.03300
Br1303     Br  0.54887509  0.73118943  0.69742490    -0.03000
H1304       H  0.07814769  0.72699517  0.74498617     0.09200
H1305       H  0.96012573  0.62169311  0.73195397     0.07200
Br1306     Br  0.98037322  0.60656070  0.77830556    -0.03400
C1307       C  0.14470838  0.70228741  0.72645018    -0.10100
C1308       C  0.14047028  0.67404802  0.74167593     0.06100
C1309       C  0.13786410  0.64413364  0.73080806    -0.03800
C1310       C  0.13648624  0.64162286  0.70565682    -0.08300
C1311       C  0.13762387  0.66844194  0.69074514     0.05300
C1312       C  0.14305630  0.69956654  0.70126622    -0.03300
Br1313     Br  0.14347520  0.73676981  0.68233965    -0.03000
H1314       H  0.14644644  0.72556681  0.73409859     0.09200
H1315       H  0.13268423  0.61760908  0.69769889     0.07200
Br1316     Br  0.13478146  0.60523263  0.74910251    -0.03400
C1317       C  0.15126591  0.65937046  0.90844142    -0.10100
C1318       C  0.11654365  0.63136771  0.90517359     0.06100
C1319       C  0.09656895  0.61205993  0.92596411    -0.03800
C1320       C  0.10907989  0.62477012  0.94894314    -0.08300
C1321       C  0.14178518  0.65571512  0.95190424     0.05300
C1322       C  0.16426740  0.67090446  0.93162570    -0.03300
Br1323     Br  0.21295211  0.70665658  0.93469647    -0.03000
H1324       H  0.16780382  0.67344869  0.89291222     0.09200
H1325       H  0.09193958  0.61180995  0.96442061     0.07200
Br1326     Br  0.05043831  0.57044353  0.92507048    -0.03400
C1327       C  0.12238918  0.96493109  0.58709956    -0.10100
C1328       C  0.14277508  0.98525752  0.60651445     0.06100
C1329       C  0.17959674  0.00319872  0.60463006    -0.03800
C1330       C  0.19524019  0.99969418  0.58396382    -0.08300
C1331       C  0.17496337  0.97854769  0.56477841     0.05300
C1332       C  0.13819016  0.96131276  0.56636333    -0.03300
Br1333     Br  0.10878075  0.93485734  0.54018345    -0.03000
H1334       H  0.09405948  0.95173618  0.58810572     0.09200
H1335       H  0.22363106  0.01338100  0.58301859     0.07200
Br1336     Br  0.21002780  0.03465567  0.62890405    -0.03400
C1337       C  0.16358354  0.96188429  0.37611963    -0.10100
C1338       C  0.18312205  0.99194811  0.36087997     0.06100
C1339       C  0.20303323  0.02553435  0.37128254    -0.03800
C1340       C  0.20455575  0.02816830  0.39644964    -0.08300
C1341       C  0.18770469  0.99762139  0.41165801     0.05300
C1342       C  0.16632493  0.96432115  0.40116384    -0.03300
Br1343     Br  0.12920024  0.42349850  0.41971704    -0.03000
H1344       H  0.13893607  0.43475379  0.36717206     0.09200
H1345       H  0.22188895  0.05398679  0.40404588     0.07200
Br1346     Br  0.23308352  0.06777647  0.35250028    -0.03400
C1347       C  0.13193680  0.85443934  0.32142093    -0.10100
C1348       C  0.11053324  0.84599264  0.30099732     0.06100
C1349       C  0.12636989  0.86417144  0.27896152    -0.03800
C1350       C  0.15886651  0.89591983  0.27959688    -0.08300
C1351       C  0.17491343  0.90933363  0.30186847     0.05300
C1352       C  0.16501406  0.88511172  0.32150827    -0.03300
Br1353     Br  0.19207975  0.89559800  0.35044893    -0.03000
H1354       H  0.12185457  0.83938532  0.33817143     0.09200
H1355       H  0.16834649  0.91258590  0.26340553     0.07200
Br1356     Br  0.10463674  0.84996720  0.24798261    -0.03400
C1357       C  0.49005795  0.79062495  0.05310996    -0.10100
C1358       C  0.52545996  0.81691924  0.04923172     0.06100
C1359       C  0.54261762  0.84385900  0.06608131    -0.03800
C1360       C  0.52452407  0.84409770  0.08654633    -0.08300
C1361       C  0.48885909  0.81804927  0.09064526     0.05300
C1362       C  0.47160964  0.79100115  0.07353356    -0.03300
Br1363     Br  0.42249463  0.75569827  0.07573594    -0.03000
H1364       H  0.01073595  0.76945128  0.06044815     0.09200
H1365       H  0.53832513  0.86559458  0.09901198     0.07200
Br1366     Br  0.58994644  0.88260813  0.06084377    -0.03400
C1367       C  0.37397780  0.81427933  0.26591445    -0.10100
C1368       C  0.37274280  0.83495021  0.24662506     0.06100
C1369       C  0.37914989  0.86923862  0.25152751    -0.03800
C1370       C  0.38744521  0.88211030  0.27502185    -0.08300
C1371       C  0.38976432  0.86166941  0.29393657     0.05300
C1372       C  0.38290792  0.82741072  0.28914110    -0.03300
Br1373     Br  0.38937499  0.79870416  0.31267978    -0.03000
H1374       H  0.37021744  0.78834367  0.26275860     0.09200
H1375       H  0.39222513  0.90837115  0.27851064     0.07200
Br1376     Br  0.37725943  0.90011890  0.22735955    -0.03400
C1377       C  0.47680826  0.82968598  0.24152609    -0.10100
C1378       C  0.45351342  0.79674864  0.23096618     0.06100
C1379       C  0.45217408  0.76596202  0.24070893    -0.03800
C1380       C  0.47284927  0.76872922  0.26073458    -0.08300
C1381       C  0.49550712  0.80169351  0.27107905     0.05300
C1382       C  0.00213830  0.82789622  0.25427684    -0.03300
Br1383     Br  0.03998040  0.87499417  0.26129062    -0.03000
H1384       H  0.99023092  0.84783539  0.22275166     0.09200
H1385       H  0.47186142  0.74514507  0.26791264     0.07200
Br1386     Br  0.42407978  0.71956476  0.22744539    -0.03400
C1387       C  0.97410493  0.75646186  0.39066682    -0.10100
C1388       C  0.99895958  0.77778344  0.40812149     0.06100
C1389       C  0.02958557  0.80896193  0.40011288    -0.03800
C1390       C  0.03614350  0.81663814  0.37535128    -0.08300
C1391       C  0.01249271  0.79387336  0.35790732     0.05300
C1392       C  0.98047843  0.76418313  0.36589305    -0.03300
Br1393     Br  0.94564999  0.73130564  0.34419073    -0.03000
H1394       H  0.95004072  0.73244938  0.39614515     0.09200
H1395       H  0.06047336  0.84031703  0.36970100     0.07200
Br1396     Br  0.06303224  0.84226868  0.42204881    -0.03400
C1397       C  0.01758911  0.67795152  0.59538387    -0.10100
C1398       C  0.48537185  0.65759016  0.57856508     0.06100
C1399       C  0.45046602  0.63807193  0.58726260    -0.03800
C1400       C  0.44358581  0.63489752  0.61212745    -0.08300
C1401       C  0.47087310  0.65058759  0.62907244     0.05300
C1402       C  0.01150950  0.67639188  0.62036895    -0.03300
Br1403     Br  0.05230967  0.69790617  0.64036782    -0.03000
H1404       H  0.04444351  0.69258245  0.58876368     0.09200
H1405       H  0.41644726  0.62102866  0.61812464     0.07200
Br1406     Br  0.41097583  0.61594879  0.56606375    -0.03400
C1407       C  0.06830297  0.83687637  0.59417496    -0.10100
C1408       C  0.04788867  0.81905988  0.61484221     0.06100
C1409       C  0.51600960  0.77719691  0.61326448    -0.03800
C1410       C  0.50882937  0.76178248  0.59044817    -0.08300
C1411       C  0.03073560  0.78609855  0.56929370     0.05300
C1412       C  0.06059793  0.82028953  0.57177850    -0.03300
Br1413     Br  0.09194645  0.84477687  0.54507725    -0.03000
H1414       H  0.09043137  0.86383700  0.59548819     0.09200
H1415       H  0.48827986  0.73412892  0.58884846     0.07200
Br1416     Br  0.48708629  0.74851350  0.63995681    -0.03400
C1417       C  0.23692004  0.82280784  0.97943302    -0.10100
C1418       C  0.25190765  0.83316090  0.00240157     0.06100
C1419       C  0.23073708  0.81504654  0.02273907    -0.03800
C1420       C  0.19993475  0.78234595  0.01968495    -0.08300
C1421       C  0.19061822  0.76711206  0.99670745     0.05300
C1422       C  0.20717123  0.78941710  0.97625310    -0.03300
Br1423     Br  0.19423235  0.77603545  0.94339264    -0.03000
H1424       H  0.25105962  0.83812964  0.96343064     0.09200
H1425       H  0.18564582  0.76730722  0.03571908     0.07200
Br1426     Br  0.24373186  0.83137450  0.05508211    -0.03400
C1427       C  0.33626514  0.83359179  0.06375537    -0.10100
C1428       C  0.35797200  0.85849358  0.04566325     0.06100
C1429       C  0.39438334  0.87895365  0.04968083    -0.03800
C1430       C  0.40817229  0.87388529  0.07090870    -0.08300
C1431       C  0.38670144  0.84877671  0.08881759     0.05300
C1432       C  0.35024315  0.82848122  0.08509539    -0.03300
Br1433     Br  0.31820779  0.79458647  0.10868073    -0.03000
H1434       H  0.30817807  0.81755003  0.06122258     0.09200
H1435       H  0.43633063  0.88972924  0.07327260     0.07200
Br1436     Br  0.42719317  0.91562025  0.02787277    -0.03400
C1437       C  0.33019503  0.59491302  0.71270522    -0.10100
C1438       C  0.31061474  0.58335384  0.69149041     0.06100
C1439       C  0.32337923  0.60682303  0.67125816    -0.03800
C1440       C  0.35941701  0.63129525  0.66924033    -0.08300
C1441       C  0.38166498  0.63519133  0.68845723     0.05300
C1442       C  0.36591913  0.62090692  0.71140902    -0.03300
Br1443     Br  0.39110731  0.63197941  0.74123195    -0.03000
H1444       H  0.31960389  0.57989150  0.72946010     0.09200
H1445       H  0.37020332  0.64488861  0.65207187     0.07200
Br1446     Br  0.29389235  0.60217493  0.64457787    -0.03400
C1447       C  0.27448862  0.96183380  0.59865862    -0.10100
C1448       C  0.27668646  0.48693439  0.58163468     0.06100
C1449       C  0.29469583  0.52114691  0.59161100    -0.03800
C1450       C  0.29882429  0.52462968  0.61645948    -0.08300
C1451       C  0.28391670  0.49498075  0.63241446     0.05300
C1452       C  0.27815512  0.96598796  0.62376568    -0.03300
Br1453     Br  0.25988761  0.92345130  0.64340863    -0.03000
H1454       H  0.26135847  0.93514694  0.59176919     0.09200
H1455       H  0.31240568  0.55127519  0.62337762     0.07200
Br1456     Br  0.31079715  0.56485747  0.57364008    -0.03400
C1457       C  0.49925542  0.92936854  0.66978346    -0.10100
C1458       C  0.48191437  0.92440089  0.64785226     0.06100
C1459       C  0.49846572  0.92223904  0.62687992    -0.03800
C1460       C  0.52366833  0.91263466  0.62922869    -0.08300
C1461       C  0.53305505  0.90646932  0.65227370     0.05300
C1462       C  0.52372124  0.91906821  0.67255424    -0.03300
Br1463     Br  0.53844394  0.91864497  0.70518779    -0.03000
H1464       H  0.48936520  0.93500060  0.68582721     0.09200
H1465       H  0.53298410  0.90646302  0.61312389     0.07200
Br1466     Br  0.48546901  0.92858864  0.59500500    -0.03400
C1467       C  0.34261791  0.85340074  0.70232270    -0.10100
C1468       C  0.37731401  0.86217223  0.69889255     0.06100
C1469       C  0.39679694  0.86316135  0.71935382    -0.03800
C1470       C  0.38247120  0.85828609  0.74250418    -0.08300
C1471       C  0.34878004  0.85246423  0.74611749     0.05300
C1472       C  0.32822157  0.84876143  0.72548056    -0.03300
Br1473     Br  0.28154032  0.84080934  0.72663967    -0.03000
H1474       H  0.32712661  0.85219396  0.68692183     0.09200
H1475       H  0.39849452  0.86053010  0.75786090     0.07200
Br1476     Br  0.44306348  0.87083504  0.71755648    -0.03400
C1477       C  0.27477315  0.92583451  0.75039576    -0.10100
C1478       C  0.30859124  0.93681137  0.75917857     0.06100
C1479       C  0.33796044  0.96645108  0.74766087    -0.03800
C1480       C  0.33286222  0.98421679  0.72843982    -0.08300
C1481       C  0.29926932  0.97300984  0.71988352     0.05300
C1482       C  0.27004194  0.94356364  0.73086334    -0.03300
Br1483     Br  0.22335773  0.92738024  0.72005520    -0.03000
H1484       H  0.25178021  0.90304477  0.75848768     0.09200
H1485       H  0.35542821  0.00719745  0.72006477     0.07200
Br1486     Br  0.38602359  0.98516457  0.75665093    -0.03400
C1487       C  0.38980110  0.91460618  0.92287071    -0.10100
C1488       C  0.36574969  0.89004795  0.90628624     0.06100
C1489       C  0.33999811  0.85593305  0.91503352    -0.03800
C1490       C  0.33598240  0.84881712  0.93990510    -0.08300
C1491       C  0.35699529  0.87513375  0.95648388     0.05300
C1492       C  0.38538955  0.90752334  0.94777824    -0.03300
Br1493     Br  0.41538416  0.94494012  0.96894415    -0.03000
H1494       H  0.41014298  0.94092604  0.91674547     0.09200
H1495       H  0.31426807  0.82346588  0.94643226     0.07200
Br1496     Br  0.30810260  0.81860951  0.89432281    -0.03400
C1497       C  0.14604824  0.69236988  0.58160463    -0.10100
C1498       C  0.16104008  0.68750868  0.60251640     0.06100
C1499       C  0.19663255  0.69749458  0.60197347    -0.03800
C1500       C  0.21665338  0.71272864  0.58092400    -0.08300
C1501       C  0.20194039  0.71865645  0.56034331     0.06200
C1502       C  0.16629589  0.70829651  0.56072877    -0.03300
Br1503     Br  0.14407822  0.71483685  0.53308250    -0.03000
H1504       H  0.11850684  0.68398893  0.58158884     0.09200
H1505       H  0.24420863  0.72114885  0.58090042     0.07200
Br1506     Br  0.21897476  0.68961243  0.62893183    -0.03400
C1507       C  0.22252161  0.70566762  0.38662630    -0.10100
C1508       C  0.20301670  0.70636618  0.40644057     0.06100
C1509       C  0.17207012  0.70678865  0.40185701    -0.03800
C1510       C  0.16303488  0.70930798  0.37808466    -0.08300
C1511       C  0.18421467  0.71156453  0.35857787     0.05300
C1512       C  0.21357549  0.70862649  0.36289117    -0.03300
Br1513     Br  0.24504629  0.71373933  0.33739185    -0.03000
H1514       H  0.24651749  0.70563025  0.38950525     0.09200
H1515       H  0.14009873  0.71121996  0.37483315     0.07200
Br1516     Br  0.14154660  0.70549111  0.42684455    -0.03400
C1517       C  0.38655261  0.84957446  0.58924010    -0.10100
C1518       C  0.36826674  0.85025890  0.60981831     0.06100
C1519       C  0.33174840  0.83603502  0.60821899    -0.03800
C1520       C  0.31489319  0.82269203  0.58638211    -0.08300
C1521       C  0.33337422  0.82280556  0.56588648     0.05300
C1522       C  0.36944184  0.83602344  0.56741649    -0.03300
Br1523     Br  0.39670309  0.83835351  0.53993791    -0.03000
H1524       H  0.41444896  0.85985044  0.58998481     0.09200
H1525       H  0.28692285  0.81221882  0.58533512     0.07200
Br1526     Br  0.30300999  0.83533050  0.63426049    -0.03400
C1527       C  0.32851799  0.83416986  0.41572510    -0.10100
C1528       C  0.32855252  0.80284198  0.42118113     0.06100
C1529       C  0.34870489  0.79403983  0.40627524    -0.03800
C1530       C  0.36756554  0.81610315  0.38654746    -0.08300
C1531       C  0.36722309  0.84708106  0.38127140     0.05300
C1532       C  0.34749006  0.85613653  0.39600781    -0.03300
Br1533     Br  0.34295942  0.89642950  0.38881630    -0.03000
H1534       H  0.31292721  0.84127187  0.42649584     0.09200
H1535       H  0.38256872  0.80895526  0.37515263     0.07200
Br1536     Br  0.35052538  0.75156436  0.41030805    -0.03400
C1537       C  0.27189939  0.61926375  0.99038255    -0.10100
C1538       C  0.25111439  0.60546843  0.96971447     0.06100
C1539       C  0.26856684  0.61014107  0.94743659    -0.03800
C1540       C  0.30268370  0.61651649  0.94765880    -0.08300
C1541       C  0.32013255  0.10374131  0.97207038     0.05300
C1542       C  0.30614571  0.62605821  0.99039604    -0.03300
Br1543     Br  0.33218141  0.64084887  0.01982001    -0.03000
H1544       H  0.26026968  0.61996167  0.00734429     0.09200
H1545       H  0.31584630  0.09612312  0.93342754     0.07200
Br1546     Br  0.24645662  0.60355508  0.91662792    -0.03400
C1547       C  0.32443608  0.98363356  0.93769480    -0.10100
C1548       C  0.34766191  0.02036292  0.93955974     0.06100
C1549       C  0.36843770  0.04002678  0.91942074    -0.03800
C1550       C  0.36505830  0.02304173  0.89775361    -0.08300
C1551       C  0.34171548  0.98621813  0.89567144     0.05300
C1552       C  0.32145271  0.96639951  0.91609620    -0.03300
Br1553     Br  0.29153018  0.91552039  0.91659479    -0.03000
H1554       H  0.30820113  0.96828610  0.95304581     0.09200
H1555       H  0.38191542  0.03855574  0.88267427     0.07200
Br1556     Br  0.40378011  0.08964789  0.92101883    -0.03400
C1557       C  0.09577524  0.73711964  0.03377790    -0.10100
C1558       C  0.09015112  0.72156741  0.01102110     0.06100
C1559       C  0.10470384  0.74460766  0.99053544    -0.03800
C1560       C  0.11416334  0.78000110  0.99242060    -0.08300
C1561       C  0.61050114  0.79166031  0.01343280     0.05300
C1562       C  0.61065660  0.77453656  0.03515525    -0.03300
Br1563     Br  0.61478272  0.79511619  0.06604189    -0.03000
H1564       H  0.59875583  0.72463186  0.05098278     0.09200
H1565       H  0.12036325  0.79598161  0.97597895     0.07200
Br1566     Br  0.10615684  0.72886657  0.95864294    -0.03400
C1567       C  0.01652648  0.66495920  0.91748129    -0.10100
C1568       C  0.00835421  0.63217702  0.90819002     0.06100
C1569       C  0.98897181  0.60131044  0.92334341    -0.03800
C1570       C  0.98726259  0.60503758  0.94835868    -0.08300
C1571       C  0.00113029  0.63880089  0.95797761     0.05300
C1572       C  0.01121188  0.66789079  0.94193547    -0.03300
Br1573     Br  0.01901084  0.71234650  0.95307850    -0.03000
H1574       H  0.02848655  0.68866852  0.90600552     0.09200
H1575       H  0.97706434  0.58189505  0.96028550     0.07200
Br1576     Br  0.96465381  0.55360019  0.91165444    -0.03400
C1577       C  0.45520290  0.98618338  0.32471950    -0.10100
C1578       C  0.44627991  0.96511444  0.34596335     0.06100
C1579       C  0.44483964  0.98042866  0.36779542    -0.03800
C1580       C  0.44013803  0.00938265  0.36675024    -0.08300
C1581       C  0.43769185  0.02315031  0.34426097     0.05300
C1582       C  0.45165802  0.01586793  0.32389807    -0.03300
Br1583     Br  0.46539076  0.53487583  0.29552616    -0.03000
H1584       H  0.46025623  0.97716443  0.30803694     0.09200
H1585       H  0.43319409  0.01726780  0.38319189     0.07200
Br1586     Br  0.44454276  0.96088912  0.39919775    -0.03400
C1587       C  0.30488185  0.54064615  0.40059185    -0.10100
C1588       C  0.30328301  0.52051520  0.42128003     0.06100
C1589       C  0.32232166  0.50305911  0.42073713    -0.03800
C1590       C  0.34146472  0.50538158  0.39985546    -0.08300
C1591       C  0.34207499  0.52465624  0.37897753     0.05300
C1592       C  0.32389717  0.54289803  0.37978198    -0.03300
Br1593     Br  0.32563276  0.57308287  0.35363746    -0.03000
H1594       H  0.29075076  0.55454484  0.40036931     0.09200
H1595       H  0.35566582  0.49155715  0.39988311     0.07200
Br1596     Br  0.32870678  0.98323093  0.44976001    -0.03400
C1597       C  0.08946762  0.76369065  0.29862254    -0.10100
C1598       C  0.07515398  0.75326007  0.32210065     0.06100
C1599       C  0.09829477  0.76745121  0.34183405    -0.03800
C1600       C  0.13417217  0.78229436  0.33766521    -0.08300
C1601       C  0.14591104  0.78040008  0.31456552     0.05300
C1602       C  0.12546741  0.77925992  0.29493522    -0.03300
Br1603     Br  0.14415211  0.79100218  0.26268831    -0.03000
H1604       H  0.07265658  0.75688438  0.28305146     0.09200
H1605       H  0.15115373  0.78821650  0.35307371     0.07200
Br1606     Br  0.08341343  0.76467369  0.37477505    -0.03400
C1607       C  0.45683099  0.65531905  0.37985773    -0.10100
C1608       C  0.48972828  0.66185971  0.37261684     0.06100
C1609       C  0.00877346  0.66209671  0.39132640    -0.03800
C1610       C  0.00322973  0.66461082  0.41583533    -0.08300
C1611       C  0.47515216  0.66364786  0.42206037     0.05300
C1612       C  0.44922014  0.65607334  0.40432081    -0.03300
Br1613     Br  0.40502634  0.65200975  0.41110413    -0.03000
H1614       H  0.43840619  0.65344899  0.36634458     0.09200
H1615       H  0.02365416  0.66938819  0.42851417     0.07200
Br1616     Br  0.05113899  0.66410325  0.38181027    -0.03400
C1617       C  0.35646340  0.51391512  0.05392704    -0.10100
C1618       C  0.33926066  0.52180338  0.07195909     0.06100
C1619       C  0.31800758  0.53522831  0.06437398    -0.03800
C1620       C  0.31766825  0.54404987  0.03998929    -0.08300
C1621       C  0.33713347  0.53888446  0.02231991     0.05300
C1622       C  0.34964498  0.00626089  0.03646718    -0.03300
Br1623     Br  0.37261525  0.99024999  0.01544739    -0.03000
H1624       H  0.37254026  0.50303944  0.05894096     0.09200
H1625       H  0.30247164  0.55585094  0.03487596     0.07200
Br1626     Br  0.28919572  0.54307687  0.08599657    -0.03400
C1627       C  0.51126815  0.62130434  0.07118872    -0.10100
C1628       C  0.98606081  0.62110520  0.04744815     0.06100
C1629       C  0.46008467  0.61280505  0.04971711    -0.03800
C1630       C  0.44085686  0.60127281  0.07132645    -0.08300
C1631       C  0.45608252  0.59878019  0.09289589     0.05300
C1632       C  0.49171555  0.60902297  0.09271531    -0.03300
Br1633     Br  0.51507640  0.60747489  0.12139548    -0.03000
H1634       H  0.53875717  0.62948584  0.07139997     0.09200
H1635       H  0.41330142  0.59282388  0.07103252     0.07200
Br1636     Br  0.93145831  0.63098583  0.02627490    -0.03400
C1637       C  0.34009486  0.53890602  0.28161397    -0.10100
C1638       C  0.35395489  0.51827476  0.28950183     0.06100
C1639       C  0.35902563  0.49809685  0.27219309    -0.03800
C1640       C  0.35524722  0.50289742  0.24753622    -0.08300
C1641       C  0.34580216  0.52716318  0.23925060     0.05300
C1642       C  0.33567788  0.54328495  0.25686632    -0.03300
Br1643     Br  0.31949739  0.57497131  0.24889750    -0.03000
H1644       H  0.33497004  0.55374346  0.29459829     0.09200
H1645       H  0.36189526  0.48907090  0.23467438     0.07200
Br1646     Br  0.35825041  0.95866729  0.28760100    -0.03400
C1647       C  0.50248742  0.66246702  0.26233981    -0.10100
C1648       C  0.48087096  0.65636237  0.28274077     0.06100
C1649       C  0.44426982  0.63500909  0.28025177    -0.03800
C1650       C  0.43019018  0.62093151  0.25782544    -0.08300
C1651       C  0.45161554  0.62750349  0.23736896     0.05300
C1652       C  0.48820022  0.64817935  0.23982938    -0.03300
Br1653     Br  0.51942775  0.66003554  0.21279180    -0.03000
H1654       H  0.53074691  0.67897027  0.26378121     0.09200
H1655       H  0.40195921  0.60534974  0.25620623     0.07200
Br1656     Br  0.41181469  0.62676991  0.30591131    -0.03400
O1657       O  0.83788466  0.09692206  0.17077765    -0.81800
O1658       O  0.93249662  0.03156211  0.19363817    -0.66500
O1659       O  0.89739759  0.09024798  0.17127114    -1.13100
C1660       C  0.85005955  0.01753625  0.10517210     1.05100
O1661       O  0.92599811  0.00127530  0.16026922    -0.79700
O1662       O  0.93739338  0.05407059  0.12839076    -0.67300
Ni1663     Ni  0.87451986  0.10504859  0.19301465     1.34900
C1664       C  0.93351806  0.07796496  0.11827960     0.83800
O1665       O  0.94377393  0.09485797  0.20644650    -0.80200
O1666       O  0.90914543  0.11559838  0.21727781    -0.90500
C1667       C  0.93788601  0.01079094  0.18124329     0.83400
O1668       O  0.84421225  0.05959891  0.20787036    -0.68700
O1669       O  0.87361193  0.01035824  0.10947914    -0.88000
C1670       C  0.85416702  0.04038221  0.21806779     0.84200
C1671       C  0.93532757  0.11183242  0.22064706     1.05800
H1672       H  0.86065835  0.00798531  0.16784904     0.37600
O1673       O  0.88098284  0.02735619  0.15973137    -1.10600
O1674       O  0.90811959  0.08235497  0.12355776    -0.67300
Ni1675     Ni  0.86883671  0.06032480  0.14631546     1.26300
O1676       O  0.87922103  0.03765338  0.20946646    -0.67500
O1677       O  0.83949621  0.02973524  0.12141191    -0.79800
C1678       C  0.84179975  0.10476267  0.14838232     0.83600
O1679       O  0.85789382  0.09487219  0.13488957    -0.67000
Ni1680     Ni  0.89877032  0.00805872  0.13686582     1.27400
Ni1681     Ni  0.91349148  0.06043929  0.18333505     1.26100
H1682       H  0.91722232  0.11144512  0.16420725     0.38200
C1683       C  0.01230710  0.17831219  0.35149215     0.79300
N1684       N  0.99345473  0.16163280  0.33162489    -0.79000
C1685       C  0.00539214  0.17654028  0.30927174     0.81800
N1686       N  0.52551749  0.19714337  0.31007210    -0.78900
C1687       C  0.54378977  0.21489087  0.32963998     0.81900
N1688       N  0.53258255  0.19907541  0.35168224    -0.80600
C1689       C  0.85619660  0.02205826  0.35952479     0.79300
N1690       N  0.84154429  0.01938870  0.33738921    -0.79000
C1691       C  0.85718143  0.01600008  0.31734846     0.81800
N1692       N  0.88748046  0.01621546  0.31967048    -0.78900
C1693       C  0.90090479  0.51414028  0.33834783     0.81900
N1694       N  0.88307204  0.51477521  0.35793228    -0.80600
C1695       C  0.50992747  0.14009903  0.98272723     0.79300
N1696       N  0.54134959  0.17039190  0.98496864    -0.79000
C1697       C  0.55546339  0.18300314  0.00666436     0.81800
N1698       N  0.53714432  0.16475168  0.02671410    -0.78900
C1699       C  0.50544299  0.13423706  0.02518571     0.81900
N1700       N  0.49164871  0.12155255  0.00296902    -0.80600
C1701       C  0.83412801  0.55365889  0.99962294     0.79300
N1702       N  0.83546365  0.07183653  0.00085250    -0.79000
C1703       C  0.82733508  0.59253022  0.97318649     0.81800
N1704       N  0.83104922  0.57584477  0.95419048    -0.78900
C1705       C  0.83627120  0.54840524  0.95742505     0.81900
N1706       N  0.83731046  0.53701939  0.98025081    -0.80600
O1707       O  0.72003345  0.29835939  0.50057933    -0.81800
O1708       O  0.79765068  0.21787575  0.52276801    -0.66500
O1709       O  0.77538148  0.28522308  0.49614243    -1.13100
C1710       C  0.71665758  0.20574268  0.43563175     1.05100
O1711       O  0.80164889  0.19734004  0.48709012    -0.79700
O1712       O  0.80775784  0.24621383  0.45302823    -0.67300
Ni1713     Ni  0.76407485  0.31276233  0.51574368     1.34900
C1714       C  0.80338427  0.27013057  0.44354687     0.83800
O1715       O  0.81659219  0.28456619  0.53485695    -0.80200
O1716       O  0.80671855  0.32977089  0.53278897    -0.90500
C1717       C  0.80615842  0.19982404  0.50977727     0.83400
O1718       O  0.73959226  0.27798426  0.54062421    -0.68700
O1719       O  0.74137759  0.19964439  0.43848754    -0.88000
C1720       C  0.73468624  0.24746200  0.54573024     0.84200
C1721       C  0.82072898  0.31373077  0.54247336     1.05800
H1722       H  0.73380383  0.20121912  0.49492759     0.37600
O1723       O  0.75399051  0.22061381  0.48690108    -1.10600
O1724       O  0.77696555  0.27284307  0.44884302    -0.67300
Ni1725     Ni  0.74123497  0.25308171  0.47409335     1.26300
O1726       O  0.74869088  0.23356158  0.53378581    -0.67500
O1727       O  0.70830446  0.21984074  0.45198340    -0.79800
C1728       C  0.71388830  0.29765347  0.47820597     0.83600
O1729       O  0.72708925  0.28598123  0.46336820    -0.67000
Ni1730     Ni  0.77093421  0.20076546  0.46427833     1.27400
Ni1731     Ni  0.78634308  0.25231820  0.51051840     1.26100
H1732       H  0.79595930  0.30236516  0.48711253     0.38200
O1733       O  0.73950985  0.33856533  0.82495288    -0.81800
O1734       O  0.90328626  0.44602334  0.79820908    -0.66500
O1735       O  0.81239892  0.37436999  0.82354839    -1.13100
C1736       C  0.83618838  0.46890406  0.87645410     1.05100
O1737       O  0.92289976  0.45311606  0.83541168    -0.79700
O1738       O  0.88326384  0.43059206  0.87625567    -0.67300
Ni1739     Ni  0.77510255  0.34939050  0.80109012     1.34900
C1740       C  0.85517451  0.40273770  0.88331317     0.83800
O1741       O  0.85855105  0.37870346  0.78691240    -0.80200
O1742       O  0.80443126  0.35485186  0.77376754    -0.90500
C1743       C  0.92872776  0.45688547  0.81282525     0.83400
O1744       O  0.77772637  0.39242991  0.79138798    -0.68700
O1745       O  0.86823335  0.48184693  0.87043594    -0.88000
C1746       C  0.80455479  0.41887945  0.78128483     0.84200
C1747       C  0.83632436  0.36485432  0.77020783     1.05800
H1748       H  0.85170437  0.45764143  0.82354332     0.37600
O1749       O  0.85440337  0.43999910  0.83225765    -1.10600
O1750       O  0.82634453  0.38976663  0.87191043    -0.67300
Ni1751     Ni  0.80958445  0.40661925  0.84572036     1.26300
O1752       O  0.83603956  0.42634763  0.78541079    -0.67500
O1753       O  0.81035106  0.44060373  0.86770832    -0.79800
C1754       C  0.73641527  0.34816050  0.84579136     0.83600
O1755       O  0.76226185  0.37286051  0.85715307    -0.67000
Ni1756     Ni  0.89380844  0.46629665  0.85219963     1.27400
Ni1757     Ni  0.85690500  0.40976525  0.80960306     1.26100
H1758       H  0.81544154  0.35712973  0.83251725     0.38200
C1759       C  0.89466678  0.38367713  0.67374844     0.79300
N1760       N  0.92967249  0.40648481  0.67083061    -0.79000
C1761       C  0.94538622  0.41354823  0.64875159     0.81800
N1762       N  0.92530864  0.39751827  0.62941221    -0.78900
C1763       C  0.89019169  0.37539283  0.63165628     0.81900
N1764       N  0.87475508  0.36814071  0.65393255    -0.80600
C1765       C  0.78734397  0.00376443  0.66270750     0.79300
N1766       N  0.77605203  0.48094636  0.67920508    -0.79000
C1767       C  0.78215513  0.49315579  0.70228688     0.81800
N1768       N  0.80273322  0.02922133  0.70811508    -0.78900
C1769       C  0.80676080  0.05150847  0.68946175     0.81900
N1770       N  0.79901788  0.03827915  0.66706971    -0.80600
C1771       C  0.83386057  0.35577002  0.02419283     0.79300
N1772       N  0.80061986  0.34934056  0.02647692    -0.79000
C1773       C  0.78331965  0.35183781  0.00708767     0.81800
N1774       N  0.79946532  0.36007320  0.98526364    -0.78900
C1775       C  0.83192203  0.36561136  0.98236886     0.81900
N1776       N  0.84921440  0.36327399  0.00183457    -0.80600
O1777       O  0.58927145  0.26794834  0.50531811    -0.81800
O1778       O  0.93279800  0.20313939  0.52595371    -0.66500
O1779       O  0.51849808  0.21343618  0.50510876    -1.13100
C1780       C  0.49640388  0.25514228  0.43276674     1.05100
O1781       O  0.90978201  0.17742877  0.49148079    -0.79700
O1782       O  0.94982175  0.17515395  0.45566057    -0.67300
Ni1783     Ni  0.55730991  0.22795712  0.52570462     1.34900
C1784       C  0.97885707  0.18164854  0.44686655     0.83800
O1785       O  0.97775202  0.18484369  0.54425029    -0.80200
O1786       O  0.52822937  0.18951575  0.54799749    -0.90500
C1787       C  0.90616021  0.18561967  0.51263938     0.83400
O1788       O  0.55112962  0.25871418  0.54601736    -0.68700
O1789       O  0.96539161  0.23988531  0.43914556    -0.88000
C1790       C  0.52756068  0.26639475  0.54831885     0.84200
C1791       C  0.00028914  0.17886741  0.55380598     1.05800
H1792       H  0.97989135  0.25697830  0.49125035     0.37600
O1793       O  0.97845994  0.23510026  0.48699809    -1.10600
O1794       O  0.50541379  0.19896616  0.45678508    -0.67300
Ni1795     Ni  0.52237557  0.24043466  0.47638788     1.26300
O1796       O  0.00006101  0.25248084  0.53470919    -0.67500
O1797       O  0.52214150  0.26474058  0.44721579    -0.79800
C1798       C  0.59424367  0.26922907  0.48262873     0.83600
O1799       O  0.56903798  0.25157780  0.46825571    -0.67000
Ni1800     Ni  0.93947466  0.20983049  0.46626737     1.27400
Ni1801     Ni  0.97734080  0.20981364  0.51573366     1.26100
H1802       H  0.51190664  0.18982501  0.50027877     0.38200
O1803       O  0.84794020  0.21908176  0.16867386    -0.81800
O1804       O  0.94054178  0.38497862  0.19120147    -0.66500
O1805       O  0.87410496  0.29181546  0.16870472    -1.13100
C1806       C  0.96680044  0.31975715  0.11198336     1.05100
O1807       O  0.95167655  0.40627381  0.15370888    -0.79700
O1808       O  0.93081616  0.36681304  0.11385451    -0.67300
Ni1809     Ni  0.85339871  0.25333880  0.19179863     1.34900
C1810       C  0.90087851  0.34010542  0.10930153     0.83800
O1811       O  0.87471998  0.33658658  0.20382857    -0.80200
O1812       O  0.85450924  0.28192303  0.21810558    -0.90500
C1813       C  0.95169684  0.41095117  0.17622837     0.83400
O1814       O  0.89783889  0.26094830  0.20117073    -0.68700
O1815       O  0.98151810  0.35150587  0.11946304    -0.88000
C1816       C  0.92116607  0.28927818  0.21100704     0.84200
C1817       C  0.86187958  0.31367502  0.22094467     1.05800
H1818       H  0.95528552  0.33300913  0.16672233     0.37600
O1819       O  0.93839423  0.33645770  0.15812830    -1.10600
O1820       O  0.88715243  0.31084252  0.12124083    -0.67300
Ni1821     Ni  0.90542019  0.29184984  0.14464853     1.26300
O1822       O  0.92535451  0.31975816  0.20599855    -0.67500
O1823       O  0.93769190  0.29411405  0.12044133    -0.79800
C1824       C  0.85252373  0.21806766  0.14615800     0.83600
O1825       O  0.87159654  0.24563371  0.13304977    -0.67000
Ni1826     Ni  0.96538186  0.37691887  0.13756251     1.27400
Ni1827     Ni  0.90712275  0.33753271  0.18102398     1.26100
H1828       H  0.85538188  0.29313976  0.16097835     0.38200
C1829       C  0.89112984  0.36010944  0.31899731     0.79300
N1830       N  0.91465962  0.39536670  0.32131028    -0.79000
C1831       C  0.92422359  0.41041597  0.34326128     0.81800
N1832       N  0.90977126  0.38934808  0.36324350    -0.78900
C1833       C  0.88694667  0.35391284  0.36139485     0.81900
N1834       N  0.87694344  0.33951246  0.33924791    -0.80600
C1835       C  0.52356872  0.28742841  0.33017667     0.79300
N1836       N  0.99579552  0.27893962  0.31304788    -0.79000
C1837       C  0.50734749  0.28920734  0.28988529     0.81800
N1838       N  0.54149609  0.30607118  0.28313278    -0.78900
C1839       C  0.56694290  0.31433386  0.29944408     0.81900
N1840       N  0.55767799  0.30501715  0.32295508    -0.80600
O1841       O  0.79124189  0.07975469  0.49030233    -0.81800
O1842       O  0.70817469  0.41823269  0.46459613    -0.66500
O1843       O  0.73048483  0.01228801  0.49036678    -1.13100
C1844       C  0.76329844  0.97706035  0.56073960     1.05100
O1845       O  0.67704294  0.39599322  0.49818545    -0.79700
O1846       O  0.67569955  0.43736513  0.53384789    -0.67300
Ni1847     Ni  0.75078851  0.05367468  0.47031034     1.34900
C1848       C  0.68498266  0.46764654  0.54211538     0.83800
O1849       O  0.69994190  0.46981615  0.44290374    -0.80200
O1850       O  0.71217206  0.03055550  0.44859821    -0.90500
C1851       C  0.68789980  0.39148423  0.47813153     0.83400
O1852       O  0.77723146  0.04243896  0.44936437    -0.68700
O1853       O  0.73569686  0.44571966  0.55238052    -0.88000
C1854       C  0.78112308  0.01609178  0.44686016     0.84200
C1855       C  0.69962501  0.49576469  0.43226354     1.05800
H1856       H  0.75822178  0.46073725  0.50058262     0.37600
O1857       O  0.73756632  0.46182018  0.50363933    -1.10600
O1858       O  0.71588514  0.99771744  0.53883732    -0.67300
Ni1859     Ni  0.75516774  0.01001453  0.51804604     1.26300
O1860       O  0.76322539  0.48433676  0.45689187    -0.67500
O1861       O  0.77706818  0.00353053  0.54578666    -0.79800
C1862       C  0.79051545  0.08451544  0.51274050     0.83600
O1863       O  0.77236887  0.05843065  0.52722067    -0.67000
Ni1864     Ni  0.70739159  0.42247035  0.52446256     1.27400
Ni1865     Ni  0.71827416  0.46488224  0.47341376     1.26100
H1866       H  0.70837080  0.00884940  0.49586088     0.38200
O1867       O  0.56327756  0.06477286  0.83077830    -0.81800
O1868       O  0.60974249  0.21589684  0.86197116    -0.66500
O1869       O  0.55568594  0.12276878  0.83509409    -1.13100
C1870       C  0.64244908  0.17577433  0.77220955     1.05100
O1871       O  0.61129848  0.23847220  0.82614184    -0.79700
O1872       O  0.59376934  0.20577658  0.78336367    -0.67300
Ni1873     Ni  0.54295920  0.08108701  0.85386617     1.34900
C1874       C  0.56708028  0.17592301  0.77831124     0.83800
O1875       O  0.54766814  0.15449724  0.87577078    -0.80200
O1876       O  0.52110760  0.09463517  0.87745518    -0.90500
C1877       C  0.61971083  0.24299875  0.84814445     0.83400
O1878       O  0.58318773  0.09873926  0.87442218    -0.68700
O1879       O  0.65372371  0.20522948  0.78270059    -0.88000
C1880       C  0.60572009  0.13006450  0.88079666     0.84200
C1881       C  0.52602474  0.12377408  0.88551316     1.05800
H1882       H  0.63421148  0.17794515  0.82977608     0.37600
O1883       O  0.61389030  0.17750441  0.82328292    -1.10600
O1884       O  0.55956621  0.14665416  0.78868118    -0.67300
Ni1885     Ni  0.58651489  0.13274032  0.80805448     1.26300
O1886       O  0.60906798  0.15755797  0.87040887    -0.67500
O1887       O  0.61806126  0.14557453  0.78074930    -0.79800
C1888       C  0.55135296  0.05862932  0.80947304     0.83600
O1889       O  0.55710940  0.08489247  0.79583057    -0.67000
Ni1890     Ni  0.63193549  0.22050253  0.80497038     1.27400
Ni1891     Ni  0.58156802  0.16807806  0.84952831     1.26100
H1892       H  0.53405682  0.12012165  0.82924924     0.38200
C1893       C  0.63961262  0.16545040  0.67150765     0.79300
N1894       N  0.65893018  0.18657585  0.65250808    -0.79000
C1895       C  0.64791777  0.17588700  0.62964688     0.81800
N1896       N  0.61831458  0.14395276  0.62602931    -0.78900
C1897       C  0.59868369  0.12299969  0.64487037     0.81900
N1898       N  0.60988628  0.13403831  0.66752160    -0.80600
C1899       C  0.97580672  0.16550493  0.65538811     0.79300
N1900       N  0.94437142  0.16170026  0.66097586    -0.79000
C1901       C  0.93522407  0.16327745  0.68402870     0.81800
N1902       N  0.95826421  0.16893395  0.70173061    -0.78900
C1903       C  0.98992785  0.17318861  0.69667796     0.81900
N1904       N  0.49302834  0.17734462  0.67630657    -0.80600
O1905       O  0.55915462  0.04486630  0.15528100    -0.81800
O1906       O  0.71608102  0.10766839  0.12676024    -0.66500
O1907       O  0.62274132  0.04863513  0.15197170    -1.13100
C1908       C  0.66325085  0.14325690  0.20820029     1.05100
O1909       O  0.73432450  0.11220642  0.16418021    -0.79700
O1910       O  0.70038711  0.10101836  0.20618377    -0.67300
Ni1911     Ni  0.58280241  0.03227277  0.13203957     1.34900
C1912       C  0.67369344  0.07065943  0.21073072     0.83800
O1913       O  0.66121841  0.04410871  0.11394804    -0.80200
O1914       O  0.60351896  0.01890792  0.10703854    -0.90500
C1915       C  0.74062645  0.11574150  0.14170834     0.83400
O1916       O  0.59715326  0.07542044  0.11437275    -0.68700
O1917       O  0.69302215  0.15697461  0.19752441    -0.88000
C1918       C  0.62722976  0.09827146  0.10589448     0.84200
C1919       C  0.63417369  0.02626044  0.10080657     1.05800
H1920       H  0.66980940  0.12916615  0.15350142     0.37600
O1921       O  0.67186839  0.11070790  0.16160415    -1.10600
O1922       O  0.64558083  0.05737154  0.19858862    -0.67300
Ni1923     Ni  0.62828875  0.08011732  0.17744548     1.26300
O1924       O  0.65548334  0.10124474  0.11369329    -0.67500
O1925       O  0.63632967  0.11320071  0.20276003    -0.79800
C1926       C  0.55574232  0.03638937  0.17758955     0.83600
O1927       O  0.58256085  0.04724163  0.19078832    -0.67000
Ni1928     Ni  0.71291330  0.13444342  0.18019108     1.27400
Ni1929     Ni  0.66814204  0.07784088  0.13790957     1.26100
H1930       H  0.62163920  0.02778383  0.15895082     0.38200
C1931       C  0.67587174  0.21580963  0.29622388     0.79300
N1932       N  0.66937254  0.24264648  0.29554594    -0.79000
C1933       C  0.67030911  0.25976031  0.31581107     0.81800
N1934       N  0.67829621  0.24972712  0.33689764    -0.78900
C1935       C  0.68455409  0.22282175  0.33819904     0.81900
N1936       N  0.68299841  0.20543680  0.31775732    -0.80600
C1937       C  0.68698748  0.47991979  0.32900679     0.79300
N1938       N  0.68409349  0.44914968  0.32206275    -0.79000
C1939       C  0.68293300  0.44125683  0.29842452     0.81800
N1940       N  0.68437145  0.46464253  0.28156628    -0.78900
C1941       C  0.69163116  0.00196928  0.29420784     0.81900
N1942       N  0.69132012  0.01030015  0.31774444    -0.80600
C1943       C  0.65118299  0.18043024  0.97399995     0.79300
N1944       N  0.66348029  0.21592854  0.97548152    -0.79000
C1945       C  0.66502389  0.23070189  0.99712602     0.81800
N1946       N  0.65478376  0.20966250  0.01723923    -0.78900
C1947       C  0.64267061  0.17456328  0.01630611     0.81900
N1948       N  0.64077859  0.15981519  0.99461090    -0.80600
O1949       O  0.64033252  0.36502419  0.82540757    -0.81800
O1950       O  0.54372380  0.42904827  0.79937430    -0.66500
O1951       O  0.61285252  0.40979825  0.82419245    -1.13100
C1952       C  0.52963010  0.34205928  0.88594491     1.05100
O1953       O  0.51966477  0.42797228  0.83477266    -0.79700
O1954       O  0.55881851  0.43025202  0.87224243    -0.67300
Ni1955     Ni  0.63611729  0.39546753  0.80230028     1.34900
C1956       C  0.58773273  0.43386715  0.87893390     0.83800
O1957       O  0.60984464  0.45290836  0.78767690    -0.80200
O1958       O  0.63641264  0.42474449  0.77591400    -0.90500
C1959       C  0.52640990  0.43774042  0.81280400     0.83400
O1960       O  0.59317413  0.35613259  0.79152851    -0.68700
O1961       O  0.51546637  0.35983272  0.88046440    -0.88000
C1962       C  0.57078073  0.35971966  0.77980338     0.84200
C1963       C  0.62692088  0.44706887  0.77200264     1.05800
H1964       H  0.53125760  0.36142534  0.82639878     0.37600
O1965       O  0.54753153  0.38292021  0.83460396    -1.10600
O1966       O  0.59901459  0.41417617  0.87160349    -0.67300
Ni1967     Ni  0.58304159  0.37590020  0.84865984     1.26300
O1968       O  0.56243706  0.38240921  0.78578042    -0.67500
O1969       O  0.55301154  0.34226049  0.87285041    -0.79800
C1970       C  0.63594315  0.35849897  0.84792421     0.83600
O1971       O  0.61868810  0.36767889  0.86093699    -0.67000
Ni1972     Ni  0.51993959  0.39316312  0.85589509     1.27400
Ni1973     Ni  0.57810525  0.41829106  0.81088060     1.26100
H1974       H  0.63064984  0.43131195  0.83162509     0.38200
C1975       C  0.54450800  0.33647243  0.63895379     0.79300
N1976       N  0.54378142  0.32252889  0.66150039    -0.79000
C1977       C  0.54392758  0.34045170  0.68141620     0.81800
N1978       N  0.54447068  0.37119959  0.67853277    -0.78900
C1979       C  0.03675763  0.37577555  0.65645903     0.81900
N1980       N  0.03806858  0.35775617  0.63746032    -0.80600
C1981       C  0.62408486  0.48141529  0.63025395     0.79300
N1982       N  0.59651102  0.99073730  0.62764310    -0.79000
C1983       C  0.58366650  0.99818646  0.64739286     0.81800
N1984       N  0.60015241  0.49921153  0.66908414    -0.78900
C1985       C  0.62132001  0.48587489  0.67253651     0.81900
N1986       N  0.63352427  0.47731840  0.65290927    -0.80600
C1987       C  0.04393468  0.31372774  0.98504367     0.79300
N1988       N  0.02742829  0.31565890  0.00507903    -0.79000
C1989       C  0.03911310  0.31381688  0.02748738     0.81800
N1990       N  0.06632047  0.30843846  0.02970576    -0.78900
C1991       C  0.08294572  0.30623894  0.00997341     0.81900
N1992       N  0.07150650  0.30908304  0.98781252    -0.80600
C1993       C  0.67326973  0.03505780  0.00170675     0.79300
N1994       N  0.70498839  0.06491865  0.99772930    -0.79000
C1995       C  0.71863358  0.07546551  0.97513047     0.81800
N1996       N  0.69984264  0.05534845  0.95631728    -0.78900
C1997       C  0.66750314  0.02592611  0.95975227     0.81900
N1998       N  0.65427934  0.01561896  0.98261181    -0.80600
C1999       C  0.96136896  0.99860576  0.18943603     0.79300
N2000       N  0.94204502  0.46000376  0.18255985    -0.79000
C2001       C  0.96414940  0.44740179  0.18402806     0.81800
N2002       N  0.50151791  0.47296050  0.18298173    -0.78900
C2003       C  0.52010241  0.01212608  0.18691998     0.81900
N2004       N  0.49702071  0.02351684  0.18767036    -0.80600
C2005       C  0.82065595  0.17889706  0.52015154     0.79300
N2006       N  0.79921712  0.14284510  0.52017487    -0.79000
C2007       C  0.81243354  0.12113801  0.52118583     0.81800
N2008       N  0.84774102  0.13590582  0.52098786    -0.78900
C2009       C  0.86989157  0.17174211  0.52113796     0.81900
N2010       N  0.85615621  0.19316340  0.51986830    -0.80600
C2011       C  0.68889591  0.30854814  0.47076578     0.79300
N2012       N  0.69982590  0.34385376  0.47065972    -0.79000
C2013       C  0.67615987  0.35459625  0.47147119     0.81800
N2014       N  0.64145506  0.32960738  0.47363388    -0.78900
C2015       C  0.62998054  0.29437046  0.47354708     0.81900
N2016       N  0.65391190  0.28405400  0.47284810    -0.80600
C2017       C  0.51435236  0.46145879  0.80404768     0.79300
N2018       N  0.97896644  0.45042159  0.80576622    -0.79000
C2019       C  0.96543340  0.47185428  0.80466981     0.81800
N2020       N  0.99102158  0.00536129  0.80150140    -0.78900
C2021       C  0.52878628  0.02086156  0.80231760     0.81900
N2022       N  0.54215259  0.99918095  0.80344102    -0.80600
C2023       C  0.65018817  0.33731906  0.85766425     0.79300
N2024       N  0.68559875  0.35202599  0.85643161    -0.79000
C2025       C  0.69998143  0.33140256  0.85534498     0.81800
N2026       N  0.67810683  0.29535588  0.85444746    -0.78900
C2027       C  0.64254446  0.27996111  0.85628174     0.81900
N2028       N  0.62895558  0.30131292  0.85708416    -0.80600
C2029       C  0.82724768  0.12570058  0.13874782     0.79300
N2030       N  0.84787395  0.16176587  0.13875809    -0.79000
C2031       C  0.83368557  0.18245981  0.13601449     0.81800
N2032       N  0.79832955  0.16656449  0.13421041    -0.78900
C2033       C  0.77723590  0.13063050  0.13429210     0.81900
N2034       N  0.79182311  0.11034699  0.13751494    -0.80600
C2035       C  0.63928832  0.44590765  0.72840088    -0.10100
C2036       C  0.63252663  0.46283068  0.74711538     0.06100
C2037       C  0.62674990  0.49057068  0.74081216    -0.03800
C2038       C  0.62598086  0.49928604  0.71643307    -0.08300
C2039       C  0.62972906  0.48023029  0.69771528     0.05300
C2040       C  0.63754474  0.45386842  0.70407176    -0.03300
Br2041     Br  0.64240463  0.42455679  0.68110933    -0.03000
H2042       H  0.64369301  0.42440549  0.73255045     0.09200
H2043       H  0.62085950  0.52024635  0.71213848     0.07200
Br2044     Br  0.61838699  0.51681462  0.76431941    -0.03400
C2045       C  0.52592302  0.33457026  0.74732419    -0.10100
C2046       C  0.55804339  0.34109398  0.75644016     0.06100
C2047       C  0.58058987  0.33645887  0.74078730    -0.03800
C2048       C  0.57286050  0.33039632  0.71614694    -0.08300
C2049       C  0.54278667  0.32823939  0.70666504     0.05300
C2050       C  0.51801774  0.32764888  0.72283212    -0.03300
Br2051     Br  0.96437739  0.31189056  0.71477180    -0.03000
H2052       H  0.50789380  0.33719589  0.75890238     0.09200
H2053       H  0.59230036  0.33126826  0.70398596     0.07200
Br2054     Br  0.62513750  0.34350150  0.75043604    -0.03400
C2055       C  0.58841351  0.46549241  0.91564638    -0.10100
C2056       C  0.60757434  0.46105008  0.89735379     0.06100
C2057       C  0.64450315  0.48229399  0.89748723    -0.03800
C2058       C  0.66138619  0.50662628  0.91594498    -0.08300
C2059       C  0.64898623  0.00355940  0.93884281     0.05300
C2060       C  0.61267173  0.98821338  0.93561467    -0.03300
Br2061     Br  0.58406483  0.99597091  0.95746117    -0.03000
H2062       H  0.55999743  0.44965128  0.91580280     0.09200
H2063       H  0.68979399  0.52236705  0.91591122     0.07200
Br2064     Br  0.67320039  0.48049772  0.87251204    -0.03400
C2065       C  0.53618724  0.29531582  0.94176424    -0.10100
C2066       C  0.52897007  0.31282495  0.95975439     0.06100
C2067       C  0.51400711  0.33303276  0.95287358    -0.03800
C2068       C  0.51030308  0.33842835  0.92837067    -0.08300
C2069       C  0.52186123  0.32466899  0.91028800     0.05300
C2070       C  0.53269782  0.30089356  0.91727947    -0.03300
Br2071     Br  0.54463072  0.27635677  0.89455921    -0.03000
H2072       H  0.54646036  0.27855088  0.94668495     0.09200
H2073       H  0.50141641  0.35641617  0.92357784     0.07200
Br2074     Br  0.00245201  0.35712996  0.97661169    -0.03400
C2075       C  0.62633191  0.01505275  0.03275631    -0.10100
C2076       C  0.66043799  0.02400457  0.02682491     0.06100
C2077       C  0.68298271  0.02613800  0.04547485    -0.03800
C2078       C  0.67231232  0.02267699  0.06960661    -0.08300
C2079       C  0.63946539  0.01767703  0.07583656     0.05300
C2080       C  0.61566508  0.01216825  0.05687236    -0.03300
Br2081     Br  0.56963023  0.00488458  0.06153107    -0.03000
H2082       H  0.60869751  0.01299459  0.01855149     0.09200
H2083       H  0.69083407  0.02627750  0.08356101     0.07200
Br2084     Br  0.72911122  0.03474902  0.03916608    -0.03400
C2085       C  0.66256978  0.17087463  0.05723690    -0.10100
C2086       C  0.63700088  0.15477422  0.03933630     0.06100
C2087       C  0.60656478  0.12168720  0.04445600    -0.03800
C2088       C  0.60284503  0.10471469  0.06691784    -0.08300
C2089       C  0.62932037  0.12006991  0.08445705     0.05300
C2090       C  0.65908335  0.15394423  0.07953940    -0.03300
Br2091     Br  0.69536717  0.17916262  0.10272327    -0.03000
H2092       H  0.68577540  0.19679065  0.05374441     0.09200
H2093       H  0.57960536  0.07886033  0.07035789     0.07200
Br2094     Br  0.56899533  0.09949923  0.02181631    -0.03400
C2095       C  0.65906416  0.04920130  0.25323321    -0.10100
C2096       C  0.67607733  0.05091049  0.23152448     0.06100
C2097       C  0.69934100  0.03850644  0.23105047    -0.03800
C2098       C  0.70474163  0.02388910  0.25194046    -0.08300
C2099       C  0.68781241  0.02191698  0.27382058     0.05300
C2100       C  0.66482799  0.03500798  0.27439934    -0.03300
Br2101     Br  0.63947950  0.03312996  0.30291732    -0.03000
H2102       H  0.64178670  0.05960858  0.25382210     0.09200
H2103       H  0.73237920  0.53035665  0.25230842     0.07200
Br2104     Br  0.74033587  0.56584610  0.20560318    -0.03400
C2105       C  0.68366320  0.21600429  0.25197566    -0.10100
C2106       C  0.67135414  0.19635701  0.27378738     0.06100
C2107       C  0.65206508  0.15888367  0.27312295    -0.03800
C2108       C  0.64748283  0.14198677  0.25113446    -0.08300
C2109       C  0.66153781  0.16174929  0.22955934     0.05300
C2110       C  0.67886480  0.19909363  0.23001872    -0.03300
Br2111     Br  0.69523470  0.22810483  0.20108032    -0.03000
H2112       H  0.69723797  0.24476825  0.25200737     0.09200
H2113       H  0.63388526  0.11323375  0.25103993     0.07200
Br2114     Br  0.62955623  0.12929791  0.30118693    -0.03400
C2115       C  0.56794097  0.03449000  0.62178420    -0.10100
C2116       C  0.56612071  0.01885909  0.64456540     0.06100
C2117       C  0.55636389  0.03129771  0.66467286    -0.03800
C2118       C  0.55827196  0.06382747  0.66264821    -0.08300
C2119       C  0.57211512  0.08489521  0.64155568     0.05300
C2120       C  0.57109428  0.06771700  0.62010194    -0.03300
Br2121     Br  0.57847493  0.08964602  0.58860856    -0.03000
H2122       H  0.57181051  0.02358182  0.60557545     0.09200
H2123       H  0.55513842  0.07523019  0.67888963     0.07200
Br2124     Br  0.54570594  0.00938771  0.69633463    -0.03400
C2125       C  0.53605054  0.20187189  0.75731687    -0.10100
C2126       C  0.54479891  0.17551484  0.75854573     0.06100
C2127       C  0.53527865  0.15158348  0.73943352    -0.03800
C2128       C  0.51659630  0.15381190  0.71994824    -0.08300
C2129       C  0.50686424  0.17934596  0.71920170     0.05300
C2130       C  0.02092392  0.20019228  0.73516761    -0.03300
Br2131     Br  0.00992508  0.23676279  0.73276900    -0.03000
H2132       H  0.54412076  0.22109349  0.77148810     0.09200
H2133       H  0.50910233  0.13509903  0.70548550     0.07200
Br2134     Br  0.54888385  0.11682216  0.73801280    -0.03400
C2135       C  0.65670753  0.20603544  0.73250377    -0.10100
C2136       C  0.65424929  0.17814202  0.74701342     0.06100
C2137       C  0.65461311  0.14997350  0.73586001    -0.03800
C2138       C  0.65334453  0.14808988  0.71069033    -0.08300
C2139       C  0.65156251  0.17392570  0.69646352     0.05300
C2140       C  0.65468253  0.20378550  0.70744903    -0.03300
Br2141     Br  0.64946033  0.23858535  0.68971717    -0.03000
H2142       H  0.65603381  0.22780413  0.74067898     0.09200
H2143       H  0.65138299  0.12514435  0.70227575     0.07200
Br2144     Br  0.65518588  0.11288706  0.75416919    -0.03400
C2145       C  0.65621554  0.17010088  0.90645440    -0.10100
C2146       C  0.62625014  0.13623534  0.90327516     0.06100
C2147       C  0.61111763  0.11395904  0.92393972    -0.03800
C2148       C  0.62099103  0.12819794  0.94700756    -0.08300
C2149       C  0.64730819  0.16398095  0.95003216     0.05300
C2150       C  0.66740524  0.18361692  0.92953213    -0.03300
Br2151     Br  0.71113956  0.22791531  0.93168819    -0.03000
H2152       H  0.66976459  0.18705921  0.89086856     0.09200
H2153       H  0.60663525  0.11160807  0.96253106     0.07200
Br2154     Br  0.57520829  0.06477568  0.92213559    -0.03400
C2155       C  0.61712624  0.45651034  0.58917102    -0.10100
C2156       C  0.63913964  0.47504874  0.60854616     0.06100
C2157       C  0.67562059  0.49071533  0.60563848    -0.03800
C2158       C  0.68936927  0.48855773  0.58356753    -0.08300
C2159       C  0.66755207  0.47011877  0.56412655     0.05300
C2160       C  0.63097743  0.45336550  0.56723926    -0.03300
Br2161     Br  0.59922425  0.42825327  0.54171056    -0.03000
H2162       H  0.58905111  0.44475668  0.59100046     0.09200
H2163       H  0.71755214  0.50133116  0.58165255     0.07200
Br2164     Br  0.70830004  0.51762342  0.63044468    -0.03400
C2165       C  0.66600348  0.45622813  0.37070847    -0.10100
C2166       C  0.68622447  0.48590049  0.35527687     0.06100
C2167       C  0.70665787  0.51958033  0.36561846    -0.03800
C2168       C  0.70830942  0.52254538  0.39082771    -0.08300
C2169       C  0.68981551  0.49245289  0.40629349     0.05300
C2170       C  0.66744514  0.45930844  0.39583833    -0.03300
Br2171     Br  0.63924574  0.92348769  0.41967884    -0.03000
H2172       H  0.65098495  0.93889874  0.36816407     0.09200
H2173       H  0.72601797  0.54833476  0.39832447     0.07200
Br2174     Br  0.73560236  0.56195136  0.34655182    -0.03400
C2175       C  0.62957781  0.34675742  0.31079258    -0.10100
C2176       C  0.60435100  0.33911410  0.29292747     0.06100
C2177       C  0.61515173  0.36039379  0.27144990    -0.03800
C2178       C  0.64743366  0.39237341  0.27096772    -0.08300
C2179       C  0.66815496  0.40379350  0.29176067     0.05300
C2180       C  0.66205537  0.37825287  0.30976211    -0.03300
Br2181     Br  0.69476339  0.38733675  0.33515943    -0.03000
H2182       H  0.62295488  0.33015288  0.32685665     0.09200
H2183       H  0.65324704  0.41061963  0.25582087     0.07200
Br2184     Br  0.58616363  0.35177783  0.24360976    -0.03400
C2185       C  0.98385982  0.29505484  0.05036928    -0.10100
C2186       C  0.02069246  0.31447380  0.04946841     0.06100
C2187       C  0.03933267  0.33343460  0.06992476    -0.03800
C2188       C  0.02115461  0.33274968  0.09063664    -0.08300
C2189       C  0.98432874  0.31371879  0.09155207     0.05300
C2190       C  0.96560166  0.29456339  0.07110044    -0.03300
Br2191     Br  0.91534341  0.27011227  0.06938185    -0.03000
H2192       H  0.46777447  0.27516756  0.03663941     0.09200
H2193       H  0.03596982  0.34840260  0.10586487     0.07200
Br2194     Br  0.08949337  0.36396928  0.06991348    -0.03400
C2195       C  0.85240233  0.29958959  0.26495561    -0.10100
C2196       C  0.86080353  0.32472220  0.24599473     0.06100
C2197       C  0.87464138  0.36059258  0.25201734    -0.03800
C2198       C  0.88316719  0.37082957  0.27592567    -0.08300
C2199       C  0.87811091  0.34623949  0.29450869     0.05300
C2200       C  0.86104626  0.30986308  0.28889237    -0.03300
Br2201     Br  0.85125808  0.27269550  0.31209855    -0.03000
H2202       H  0.84116253  0.27175463  0.26106125     0.09200
H2203       H  0.89457329  0.39868623  0.27983667     0.07200
Br2204     Br  0.88382760  0.39772394  0.22893873    -0.03400
C2205       C  0.94031401  0.30060440  0.25330155    -0.10100
C2206       C  0.94114575  0.28629017  0.23109946     0.06100
C2207       C  0.95925325  0.26814346  0.22919862    -0.03800
C2208       C  0.97791192  0.26647284  0.24899766    -0.08300
C2209       C  0.97785560  0.28163085  0.27105107     0.05300
C2210       C  0.46766409  0.30821166  0.27264756    -0.03300
Br2211     Br  0.47475154  0.33758757  0.29975743    -0.03000
H2212       H  0.43839429  0.32736546  0.25387455     0.09200
H2213       H  0.99349991  0.25430178  0.24695357     0.07200
Br2214     Br  0.96142072  0.24765206  0.19954881    -0.03400
C2215       C  0.47908207  0.24200200  0.38984105    -0.10100
C2216       C  0.50312482  0.26570425  0.40673977     0.06100
C2217       C  0.53370356  0.29644192  0.39803728    -0.03800
C2218       C  0.53928313  0.30328490  0.37313323    -0.08300
C2219       C  0.51525107  0.27953100  0.35631264     0.05300
C2220       C  0.48504696  0.24836729  0.36497201    -0.03300
Br2221     Br  0.45273663  0.21178174  0.34400644    -0.03000
H2222       H  0.45604856  0.21737669  0.39594964     0.09200
H2223       H  0.56290214  0.32725874  0.36688916     0.07200
Br2224     Br  0.56885319  0.32986562  0.41912757    -0.03400
C2225       C  0.51974265  0.18716545  0.59900152    -0.10100
C2226       C  0.99352163  0.16483805  0.57903426     0.06100
C2227       C  0.95937662  0.14695344  0.58901966    -0.03800
C2228       C  0.95461790  0.14558116  0.61395606    -0.08300
C2229       C  0.98330056  0.16203065  0.62970274     0.05300
C2230       C  0.51377955  0.18807400  0.62364871    -0.03300
Br2231     Br  0.55427600  0.21823033  0.64263392    -0.03000
H2232       H  0.54633154  0.20341735  0.59205919     0.09200
H2233       H  0.92799991  0.13280094  0.62092518     0.07200
Br2234     Br  0.91800117  0.12569372  0.56959576    -0.03400
C2235       C  0.56536322  0.33512558  0.59750894    -0.10100
C2236       C  0.54092445  0.31722537  0.61639368     0.06100
C2237       C  0.00713293  0.27407223  0.61302962    -0.03800
C2238       C  0.00336002  0.26125882  0.58953432    -0.08300
C2239       C  0.53027803  0.28691671  0.56999141     0.05300
C2240       C  0.56084663  0.31976819  0.57480685    -0.03300
Br2241     Br  0.59750096  0.34411659  0.55106470    -0.03000
H2242       H  0.58835850  0.36105585  0.60054015     0.09200
H2243       H  0.98143439  0.23497990  0.58567999     0.07200
Br2244     Br  0.97124835  0.24539606  0.63644568    -0.03400
C2245       C  0.72812844  0.32828640  0.98503061    -0.10100
C2246       C  0.74468359  0.33552177  0.00755046     0.06100
C2247       C  0.72436683  0.31542068  0.02766337    -0.03800
C2248       C  0.69389773  0.28264619  0.02386256    -0.08300
C2249       C  0.68408561  0.26987068  0.00023548     0.05300
C2250       C  0.69880561  0.29490883  0.98087332    -0.03300
Br2251     Br  0.68380655  0.28572033  0.94808773    -0.03000
H2252       H  0.74133613  0.34575629  0.96958414     0.09200
H2253       H  0.68060323  0.26569135  0.03948041     0.07200
Br2254     Br  0.73850350  0.32942710  0.06025219    -0.03400
C2255       C  0.83091030  0.33205170  0.06608686    -0.10100
C2256       C  0.85154095  0.35167441  0.04577789     0.06100
C2257       C  0.88832337  0.36709445  0.04699223    -0.03800
C2258       C  0.90324453  0.36254872  0.06783082    -0.08300
C2259       C  0.88267711  0.34325666  0.08801241     0.05300
C2260       C  0.84608891  0.32792007  0.08707627    -0.03300
Br2261     Br  0.81589196  0.30335768  0.11433172    -0.03000
H2262       H  0.80269748  0.31989108  0.06580845     0.09200
H2263       H  0.93146061  0.37440025  0.06825978     0.07200
Br2264     Br  0.92080509  0.39647923  0.02193000    -0.03400
C2265       C  0.84895185  0.10346801  0.71331955    -0.10100
C2266       C  0.82959095  0.09061738  0.69203754     0.06100
C2267       C  0.84065128  0.11379362  0.67155019    -0.03800
C2268       C  0.87498272  0.14285308  0.67046108    -0.08300
C2269       C  0.89779532  0.14968280  0.68982240     0.05300
C2270       C  0.88285791  0.13346353  0.71248279    -0.03300
Br2271     Br  0.90780699  0.14811625  0.74236848    -0.03000
H2272       H  0.83963221  0.08804849  0.73002986     0.09200
H2273       H  0.88493211  0.15735371  0.65345676     0.07200
Br2274     Br  0.81216866  0.10543573  0.64351774    -0.03400
C2275       C  0.75722562  0.45423329  0.60021684    -0.10100
C2276       C  0.77505832  0.98230200  0.58643111     0.06100
C2277       C  0.80049790  0.01590016  0.59524027    -0.03800
C2278       C  0.80547984  0.02074453  0.62000637    -0.08300
C2279       C  0.78463881  0.99356118  0.63697639     0.05300
C2280       C  0.75970326  0.45906119  0.62534485    -0.03300
Br2281     Br  0.73773556  0.41717323  0.64571045    -0.03000
H2282       H  0.74267774  0.42732355  0.59373704     0.09200
H2283       H  0.82504802  0.04693064  0.62603109     0.07200
Br2284     Br  0.82765847  0.05792211  0.57540743    -0.03400
C2285       C  0.00106974  0.43336447  0.66911898    -0.10100
C2286       C  0.98372392  0.42847539  0.64719122     0.06100
C2287       C  0.99890637  0.42355297  0.62643994    -0.03800
C2288       C  0.02206836  0.41145364  0.62936194    -0.08300
C2289       C  0.03061705  0.40537289  0.65266764     0.05300
C2290       C  0.02391064  0.42105909  0.67231714    -0.03300
Br2291     Br  0.04035492  0.42224306  0.70462360    -0.03000
H2292       H  0.99246710  0.44100087  0.68485836     0.09200
H2293       H  0.02973248  0.40282099  0.61362200     0.07200
Br2294     Br  0.98568808  0.42802161  0.59417490    -0.03400
C2295       C  0.84395887  0.36584407  0.70142527    -0.10100
C2296       C  0.87884029  0.37485821  0.69844531     0.06100
C2297       C  0.89790865  0.37615881  0.71928627    -0.03800
C2298       C  0.88276296  0.37083115  0.74222773    -0.08300
C2299       C  0.84854200  0.36386959  0.74535603     0.05300
C2300       C  0.82872146  0.36050979  0.72439511    -0.03300
Br2301     Br  0.78159921  0.35126322  0.72496206    -0.03000
H2302       H  0.82872461  0.36432038  0.68576242     0.09200
H2303       H  0.89834179  0.37296211  0.75783034     0.07200
Br2304     Br  0.94430508  0.38383018  0.71845506    -0.03400
C2305       C  0.76785091  0.42093085  0.74809553    -0.10100
C2306       C  0.79830551  0.43913792  0.76220451     0.06100
C2307       C  0.82258766  0.47522947  0.75661161    -0.03800
C2308       C  0.81664441  0.49182473  0.73696325    -0.08300
C2309       C  0.78674365  0.47333068  0.72246374     0.05300
C2310       C  0.76194393  0.43763656  0.72843017    -0.03300
Br2311     Br  0.71863939  0.41125421  0.71148496    -0.03000
H2312       H  0.74863752  0.39325392  0.75212745     0.09200
H2313       H  0.83572494  0.51956541  0.73295326     0.07200
Br2314     Br  0.86327485  0.50398534  0.77576801    -0.03400
C2315       C  0.87895737  0.41179362  0.92475785    -0.10100
C2316       C  0.85547595  0.38793745  0.90764793     0.06100
C2317       C  0.82915440  0.35360733  0.91574426    -0.03800
C2318       C  0.82451274  0.34540115  0.94051194    -0.08300
C2319       C  0.84559946  0.37079795  0.95754807     0.05300
C2320       C  0.87388858  0.40368763  0.94949337    -0.03300
Br2321     Br  0.90244611  0.44061868  0.97146674    -0.03000
H2322       H  0.89932417  0.43840958  0.91919219     0.09200
H2323       H  0.80261994  0.31987524  0.94660605     0.07200
Br2324     Br  0.79757992  0.31743169  0.89423782    -0.03400
C2325       C  0.67886131  0.17582691  0.59301917    -0.10100
C2326       C  0.67075467  0.19502846  0.60881901     0.06100
C2327       C  0.68407030  0.23126894  0.60409963    -0.03800
C2328       C  0.70436820  0.24744896  0.58335106    -0.08300
C2329       C  0.71242639  0.22826885  0.56718170     0.06200
C2330       C  0.69987704  0.19201391  0.57257650    -0.03300
Br2331     Br  0.70983627  0.16232912  0.55342139    -0.03000
H2332       H  0.66905438  0.14793670  0.59680479     0.09200
H2333       H  0.71409673  0.27540344  0.58004636     0.07200
Br2334     Br  0.67414576  0.25948677  0.62468666    -0.03400
C2335       C  0.71849861  0.19523640  0.39186635    -0.10100
C2336       C  0.70124588  0.20075321  0.41112783     0.06100
C2337       C  0.67428436  0.20749580  0.40556596    -0.03800
C2338       C  0.66797490  0.21221996  0.38148804    -0.08300
C2339       C  0.68785897  0.21038523  0.36249367     0.05300
C2340       C  0.71225768  0.20023569  0.36779438    -0.03300
Br2341     Br  0.74103845  0.19727073  0.34339037    -0.03000
H2342       H  0.73904337  0.18963788  0.39542221     0.09200
H2343       H  0.64817806  0.21883282  0.37763717     0.07200
Br2344     Br  0.64583519  0.21212529  0.42951733    -0.03400
C2345       C  0.88542024  0.34354779  0.59419561    -0.10100
C2346       C  0.87052008  0.35691074  0.61000389     0.06100
C2347       C  0.83915160  0.35502632  0.60362958    -0.03800
C2348       C  0.82400815  0.34113777  0.58142067    -0.08300
C2349       C  0.83924040  0.32847084  0.56530354     0.05300
C2350       C  0.86982849  0.32894636  0.57212992    -0.03300
Br2351     Br  0.89234070  0.31187987  0.55171152    -0.03000
H2352       H  0.90958419  0.34477636  0.59896287     0.09200
H2353       H  0.79989516  0.34009354  0.57675487     0.07200
Br2354     Br  0.81703985  0.37303361  0.62364869    -0.03400
C2355       C  0.81719010  0.31344662  0.40981040    -0.10100
C2356       C  0.82779354  0.29392688  0.42409169     0.06100
C2357       C  0.85952005  0.29561330  0.41784899    -0.03800
C2358       C  0.87860740  0.31517393  0.39724136    -0.08300
C2359       C  0.86694429  0.33341875  0.38286731     0.05300
C2360       C  0.83644434  0.33304522  0.38952158    -0.03300
Br2361     Br  0.81985207  0.35880893  0.37122663    -0.03000
H2362       H  0.79322724  0.31293754  0.41399181     0.09200
H2363       H  0.90264418  0.31618471  0.39242595     0.07200
Br2364     Br  0.87917679  0.27301979  0.43656963    -0.03400
C2365       C  0.77653998  0.11506484  0.99337756    -0.10100
C2366       C  0.75669305  0.10216551  0.97225350     0.06100
C2367       C  0.77486933  0.10508686  0.95066024    -0.03800
C2368       C  0.80766099  0.10829907  0.95213872    -0.08300
C2369       C  0.81246189  0.61548411  0.96890892     0.05300
C2370       C  0.80942908  0.11856428  0.99479787    -0.03300
Br2371     Br  0.83299502  0.13111393  0.02526198    -0.03000
H2372       H  0.76461626  0.11710979  0.00979014     0.09200
H2373       H  0.80937518  0.60991492  0.93000190     0.07200
Br2374     Br  0.75490338  0.10022060  0.91922652    -0.03400
C2375       C  0.81931516  0.49108800  0.93833277    -0.10100
C2376       C  0.83573887  0.52824593  0.93623016     0.06100
C2377       C  0.84949698  0.54505114  0.91352540    -0.03800
C2378       C  0.84651701  0.52468235  0.89366074    -0.08300
C2379       C  0.83029464  0.48762185  0.89581812     0.05300
C2380       C  0.81666599  0.47080510  0.91844639    -0.03300
Br2381     Br  0.79745495  0.42081036  0.92384405    -0.03000
H2382       H  0.80864040  0.47768777  0.95557230     0.09200
H2383       H  0.85852375  0.53804887  0.87663023     0.07200
Br2384     Br  0.87591218  0.59582918  0.90879430    -0.03400
C2385       C  0.59171813  0.23597729  0.03127598    -0.10100
C2386       C  0.58477540  0.22031750  0.00849257     0.06100
C2387       C  0.59852355  0.24314100  0.98783631    -0.03800
C2388       C  0.61006293  0.27905858  0.99013036    -0.08300
C2389       C  0.10517437  0.29028916  0.01204204     0.05300
C2390       C  0.10456872  0.27249855  0.03365485    -0.03300
Br2391     Br  0.10998928  0.29285482  0.06475327    -0.03000
H2392       H  0.08950292  0.22168501  0.04938914     0.09200
H2393       H  0.61611566  0.29526224  0.97380341     0.07200
Br2394     Br  0.59652729  0.22692324  0.95553287    -0.03400
C2395       C  0.50801458  0.15186135  0.91640132    -0.10100
C2396       C  0.50793742  0.12169070  0.90871105     0.06100
C2397       C  0.49568502  0.09229179  0.92532620    -0.03800
C2398       C  0.49165189  0.09678413  0.94985000    -0.08300
C2399       C  0.49740094  0.12919199  0.95790473     0.05300
C2400       C  0.50176633  0.15520875  0.94062672    -0.03300
Br2401     Br  0.50184863  0.19699860  0.94977161    -0.03000
H2402       H  0.51492703  0.17382328  0.90389757     0.09200
H2403       H  0.48698215  0.07599663  0.96283338     0.07200
Br2404     Br  0.48602598  0.04590741  0.91691176    -0.03400
C2405       C  0.94817885  0.46948504  0.32291172    -0.10100
C2406       C  0.94085261  0.44963406  0.34466283     0.06100
C2407       C  0.93891702  0.46550183  0.36603002    -0.03800
C2408       C  0.93206887  0.49302120  0.36427663    -0.08300
C2409       C  0.92871058  0.50549151  0.34149403     0.05300
C2410       C  0.94311218  0.49821327  0.32139720    -0.03300
Br2411     Br  0.95098995  0.02903367  0.29231509    -0.03000
H2412       H  0.95373932  0.46032256  0.30649017     0.09200
H2413       H  0.92505885  0.50125089  0.38052650     0.07200
Br2414     Br  0.94177500  0.44890969  0.39776313    -0.03400
C2415       C  0.81143203  0.04490352  0.40780042    -0.10100
C2416       C  0.80311680  0.01818870  0.42573237     0.06100
C2417       C  0.81318798  0.99314570  0.42141622    -0.03800
C2418       C  0.83086434  0.99536019  0.39989175    -0.08300
C2419       C  0.83789749  0.02133648  0.38194753     0.05300
C2420       C  0.82820505  0.04637922  0.38612494    -0.03300
Br2421     Br  0.83817915  0.08374460  0.36310624    -0.03000
H2422       H  0.80399601  0.06446823  0.41018393     0.09200
H2423       H  0.83847507  0.97603841  0.39687305     0.07200
Br2424     Br  0.81537932  0.46263085  0.44564195    -0.03400
C2425       C  0.59209988  0.25682744  0.30214640    -0.10100
C2426       C  0.57906607  0.24702093  0.32598319     0.06100
C2427       C  0.60291700  0.26329810  0.34505362    -0.03800
C2428       C  0.63885418  0.28025629  0.34006183    -0.08300
C2429       C  0.65022921  0.27794158  0.31688480     0.05300
C2430       C  0.62800806  0.27356337  0.29753913    -0.03300
Br2431     Br  0.64420588  0.28313623  0.26462297    -0.03000
H2432       H  0.57448624  0.24837342  0.28695256     0.09200
H2433       H  0.65675342  0.28830856  0.35509221     0.07200
Br2434     Br  0.58905857  0.26085849  0.37815135    -0.03400
C2435       C  0.96466328  0.15608520  0.38202038    -0.10100
C2436       C  0.99863985  0.16446508  0.37605056     0.06100
C2437       C  0.51531720  0.15644009  0.39698031    -0.03800
C2438       C  0.50748640  0.15740758  0.42126321    -0.08300
C2439       C  0.97973830  0.16370433  0.42467405     0.05300
C2440       C  0.95491897  0.15556584  0.40610187    -0.03300
Br2441     Br  0.90945494  0.14925740  0.41135137    -0.03000
H2442       H  0.94684903  0.15365295  0.36785041     0.09200
H2443       H  0.52800894  0.16478021  0.43440759     0.07200
Br2444     Br  0.56070492  0.16426374  0.38894310    -0.03400
C2445       C  0.85389380  0.00443093  0.06205075    -0.10100
C2446       C  0.83875888  0.01552659  0.07954520     0.06100
C2447       C  0.81872373  0.03003156  0.07132893    -0.03800
C2448       C  0.81774085  0.03673392  0.04665671    -0.08300
C2449       C  0.83592601  0.02906377  0.02943748     0.05300
C2450       C  0.85546535  0.52752837  0.03169518    -0.03300
Br2451     Br  0.88797202  0.52557162  0.01000961    -0.03000
H2452       H  0.86879106  0.99245269  0.06761968     0.09200
H2453       H  0.80349531  0.04934395  0.04099453     0.07200
Br2454     Br  0.79321451  0.04308407  0.09233021    -0.03400
C2455       C  0.00728390  0.11796683  0.07170174    -0.10100
C2456       C  0.48573254  0.11802172  0.04800750     0.06100
C2457       C  0.95377181  0.10859708  0.05338684    -0.03800
C2458       C  0.93714157  0.09796000  0.07596384    -0.08300
C2459       C  0.95488555  0.09641797  0.09650530     0.05300
C2460       C  0.99041537  0.10676337  0.09424752    -0.03300
Br2461     Br  0.01737305  0.10732436  0.12143028    -0.03000
H2462       H  0.03478642  0.12639616  0.07030690     0.09200
H2463       H  0.90964559  0.08958241  0.07725534     0.07200
Br2464     Br  0.42271246  0.10958465  0.02494542    -0.03400
C2465       C  0.83333400  0.03678721  0.28456226    -0.10100
C2466       C  0.84277250  0.01266313  0.29275497     0.06100
C2467       C  0.84515280  0.99042440  0.27583937    -0.03800
C2468       C  0.84428930  0.99685771  0.25108945    -0.08300
C2469       C  0.84019785  0.02474792  0.24262381     0.05300
C2470       C  0.83159182  0.04275677  0.25974429    -0.03300
Br2471     Br  0.82202241  0.07936829  0.25117574    -0.03000
H2472       H  0.83050102  0.05341670  0.29735811     0.09200
H2473       H  0.84951959  0.98169708  0.23844583     0.07200
Br2474     Br  0.85437075  0.45112305  0.27969870    -0.03400
C2475       C  0.00709659  0.16403925  0.26586288    -0.10100
C2476       C  0.98707615  0.15800882  0.28707292     0.06100
C2477       C  0.95030065  0.13558670  0.28613402    -0.03800
C2478       C  0.93455120  0.11977764  0.26444997    -0.08300
C2479       C  0.95449625  0.12624773  0.24326382     0.05300
C2480       C  0.99111736  0.14854767  0.24406536    -0.03300
Br2481     Br  0.01994943  0.16128662  0.21558937    -0.03000
H2482       H  0.03536987  0.18141699  0.26607899     0.09200
H2483       H  0.90622142  0.10303494  0.26395128     0.07200
Br2484     Br  0.91954936  0.12818024  0.31279802    -0.03400
O2485       O  0.83136263  0.59434919  0.16691749    -0.81800
O2486       O  0.92959341  0.53224806  0.18631689    -0.66500
O2487       O  0.89171595  0.58952432  0.16674002    -1.13100
C2488       C  0.84471167  0.51989759  0.09963503     1.05100
O2489       O  0.91705044  0.49718369  0.15465081    -0.79700
O2490       O  0.93051751  0.55213623  0.12323770    -0.67300
Ni2491     Ni  0.86777453  0.60180943  0.18928194     1.34900
C2492       C  0.92786862  0.57715465  0.11361238     0.83800
O2493       O  0.93944295  0.59459794  0.20077002    -0.80200
O2494       O  0.90256277  0.61181966  0.21326769    -0.90500
C2495       C  0.93183302  0.50881434  0.17472209     0.83400
O2496       O  0.83864470  0.55498539  0.20299977    -0.68700
O2497       O  0.86719853  0.51117497  0.10382903    -0.88000
C2498       C  0.85057053  0.53738932  0.21317768     0.84200
C2499       C  0.92963624  0.60934923  0.21602674     1.05800
H2500       H  0.85496473  0.50798797  0.16283026     0.37600
O2501       O  0.87516780  0.52698877  0.15436777    -1.10600
O2502       O  0.90304363  0.58249048  0.11903688    -0.67300
Ni2503     Ni  0.86329442  0.56051465  0.14152389     1.26300
O2504       O  0.87628943  0.53632406  0.20416348    -0.67500
O2505       O  0.83379211  0.53099841  0.11632963    -0.79800
C2506       C  0.83680470  0.60511491  0.14499698     0.83600
O2507       O  0.85294863  0.59593395  0.13091212    -0.67000
Ni2508     Ni  0.89111410  0.50646946  0.13120783     1.27400
Ni2509     Ni  0.90897663  0.56022249  0.17749827     1.26100
H2510       H  0.91109274  0.61135442  0.15995928     0.38200
C2511       C  0.99704321  0.67454063  0.34941159     0.79300
N2512       N  0.97968962  0.65643192  0.32942457    -0.79000
C2513       C  0.99243975  0.67110201  0.30703598     0.81800
N2514       N  0.52731019  0.70698714  0.30389467    -0.78900
C2515       C  0.54493979  0.72434337  0.32383714     0.81900
N2516       N  0.53253739  0.70850534  0.34570470    -0.80600
C2517       C  0.85285677  0.51486944  0.35553507     0.79300
N2518       N  0.83980401  0.51364820  0.33298076    -0.79000
C2519       C  0.85713104  0.51226784  0.31315164     0.81800
N2520       N  0.88746582  0.51259598  0.31615076    -0.78900
C2521       C  0.90262129  0.01944144  0.34136287     0.81900
N2522       N  0.88633408  0.02160686  0.36133115    -0.80600
C2523       C  0.52541015  0.64372681  0.98537280     0.79300
N2524       N  0.55740165  0.67308840  0.98820178    -0.79000
C2525       C  0.57037512  0.68576554  0.01015944     0.81800
N2526       N  0.55037132  0.66809339  0.02989232    -0.78900
C2527       C  0.51816131  0.63822914  0.02761708     0.81900
N2528       N  0.50557833  0.62599963  0.00517555    -0.80600
C2529       C  0.83889596  0.04321980  0.00432317     0.79300
N2530       N  0.82846338  0.58087066  0.99587022    -0.79000
C2531       C  0.83664764  0.08553572  0.97853270     0.81800
N2532       N  0.84122950  0.06987914  0.95926417    -0.78900
C2533       C  0.84461439  0.04116239  0.96214480     0.81900
N2534       N  0.84278003  0.02736543  0.98472963    -0.80600
O2535       O  0.71777729  0.79987127  0.50044088    -0.81800
O2536       O  0.78935632  0.71219535  0.51939317    -0.66500
O2537       O  0.77244839  0.78527279  0.49693852    -1.13100
C2538       C  0.72020813  0.71371012  0.43076957     1.05100
O2539       O  0.80548426  0.70540721  0.48285894    -0.79700
O2540       O  0.81059206  0.75528977  0.45053242    -0.67300
Ni2541     Ni  0.75858703  0.80930640  0.51819904     1.34900
C2542       C  0.80636830  0.78013532  0.44285251     0.83800
O2543       O  0.80766401  0.77612851  0.53643939    -0.80200
O2544       O  0.79772363  0.82122540  0.53837548    -0.90500
C2545       C  0.80327628  0.69995450  0.50562248     0.83400
O2546       O  0.72905321  0.76985041  0.53874018    -0.68700
O2547       O  0.74504182  0.70758980  0.43357847    -0.88000
C2548       C  0.72345311  0.73868245  0.54150505     0.84200
C2549       C  0.81202252  0.80427367  0.54587798     1.05800
H2550       H  0.73189927  0.70228604  0.48829664     0.37600
O2551       O  0.75292450  0.72304781  0.48255838    -1.10600
O2552       O  0.77956742  0.78182199  0.44852089    -0.67300
Ni2553     Ni  0.74151432  0.75739598  0.47181798     1.26300
O2554       O  0.73966171  0.72672898  0.52990732    -0.67500
O2555       O  0.71184217  0.72807041  0.44695276    -0.79800
C2556       C  0.71342153  0.80106014  0.47794162     0.83600
O2557       O  0.72822815  0.79147536  0.46291551    -0.67000
Ni2558     Ni  0.77442777  0.70826383  0.45963157     1.27400
Ni2559     Ni  0.78075236  0.74927453  0.50935063     1.26100
H2560       H  0.79424670  0.80362869  0.48970516     0.38200
O2561       O  0.74327213  0.83789956  0.82758012    -0.81800
O2562       O  0.90546627  0.93986712  0.79626386    -0.66500
O2563       O  0.81601590  0.87099821  0.82517401    -1.13100
C2564       C  0.84335826  0.96817998  0.87661485     1.05100
O2565       O  0.92878826  0.95403965  0.83234793    -0.79700
O2566       O  0.89224536  0.93185120  0.87367083    -0.67300
Ni2567     Ni  0.77741935  0.84548361  0.80362796     1.34900
C2568       C  0.86519650  0.90430770  0.88219805     0.83800
O2569       O  0.85990332  0.87155363  0.78839416    -0.80200
O2570       O  0.80515462  0.84753346  0.77642019    -0.90500
C2571       C  0.93228478  0.95442076  0.80969447     0.83400
O2572       O  0.78072467  0.88834248  0.79209468    -0.68700
O2573       O  0.87474336  0.98131208  0.86902127    -0.88000
C2574       C  0.80780058  0.91395971  0.78158851     0.84200
C2575       C  0.83669497  0.85666993  0.77238570     1.05800
H2576       H  0.85507632  0.95390199  0.82209817     0.37600
O2577       O  0.85877979  0.93734056  0.83137448    -1.10600
O2578       O  0.83487817  0.89040149  0.87257694    -0.67300
Ni2579     Ni  0.81491838  0.90468286  0.84681517     1.26300
O2580       O  0.83867515  0.91984708  0.78533174    -0.67500
O2581       O  0.81702544  0.93979686  0.86839993    -0.79800
C2582       C  0.74123930  0.84740202  0.84864102     0.83600
O2583       O  0.76808969  0.87112365  0.85997396    -0.67000
Ni2584     Ni  0.89959858  0.96626457  0.84965048     1.27400
Ni2585     Ni  0.85997590  0.90487809  0.80983831     1.26100
H2586       H  0.81904555  0.85392034  0.83437704     0.38200
C2587       C  0.89119661  0.87157529  0.67576491     0.79300
N2588       N  0.92595207  0.89538292  0.67288108    -0.79000
C2589       C  0.94149469  0.90377585  0.65073005     0.81800
N2590       N  0.92148241  0.88786241  0.63132060    -0.78900
C2591       C  0.88645757  0.86449557  0.63357563     0.81900
N2592       N  0.87128808  0.85639040  0.65593998    -0.80600
C2593       C  0.77793788  0.50269892  0.66054447     0.79300
N2594       N  0.78333802  0.98156239  0.68158833    -0.79000
C2595       C  0.79038641  0.99423156  0.70448053     0.81800
N2596       N  0.79140133  0.52724498  0.70623034    -0.78900
C2597       C  0.79385056  0.54925681  0.68790256     0.81900
N2598       N  0.78675260  0.53640768  0.66538907    -0.80600
C2599       C  0.84731889  0.87091132  0.02302812     0.79300
N2600       N  0.81294205  0.86122872  0.02298112    -0.79000
C2601       C  0.79669749  0.86094882  0.00221786     0.81800
N2602       N  0.81534287  0.87015089  0.98143257    -0.78900
C2603       C  0.84898368  0.87841630  0.98069776     0.81900
N2604       N  0.86513969  0.87848535  0.00155120    -0.80600
O2605       O  0.58844959  0.76529380  0.50492473    -0.81800
O2606       O  0.92907323  0.70215968  0.52599248    -0.66500
O2607       O  0.51655661  0.71211056  0.50255451    -1.13100
C2608       C  0.49760577  0.76297391  0.43352918     1.05100
O2609       O  0.90713175  0.67672642  0.49140221    -0.79700
O2610       O  0.94748725  0.67553439  0.45714987    -0.67300
Ni2611     Ni  0.55463029  0.72368957  0.52357749     1.34900
C2612       C  0.97553086  0.68285065  0.44653550     0.83800
O2613       O  0.97435742  0.68389531  0.54381337    -0.80200
O2614       O  0.52450099  0.68370743  0.54477320    -0.90500
C2615       C  0.90266850  0.68448616  0.51237434     0.83400
O2616       O  0.54862915  0.75339922  0.54486007    -0.68700
O2617       O  0.96165814  0.74016982  0.43933650    -0.88000
C2618       C  0.52505085  0.76083651  0.54803263     0.84200
C2619       C  0.99713278  0.67866754  0.55372805     1.05800
H2620       H  0.97641085  0.75704305  0.49171312     0.37600
O2621       O  0.97530972  0.73540807  0.48721557    -1.10600
O2622       O  0.50546083  0.70471637  0.45308848    -0.67300
Ni2623     Ni  0.52150685  0.74303091  0.47573632     1.26300
O2624       O  0.99748467  0.75199107  0.53531857    -0.67500
O2625       O  0.52241911  0.77140811  0.44858275    -0.79800
C2626       C  0.59356298  0.77103103  0.48226746     0.83600
O2627       O  0.56860228  0.75580449  0.46734486    -0.67000
Ni2628     Ni  0.93626777  0.70974275  0.46653161     1.27400
Ni2629     Ni  0.97431744  0.70963882  0.51565728     1.26100
H2630       H  0.51020386  0.68935268  0.49608396     0.38200
O2631       O  0.85247061  0.72332834  0.16847738    -0.81800
O2632       O  0.94661320  0.88832617  0.19281214    -0.66500
O2633       O  0.87850747  0.79617645  0.16949478    -1.13100
C2634       C  0.96971352  0.82499896  0.11103122     1.05100
O2635       O  0.95854406  0.91130451  0.15583070    -0.79700
O2636       O  0.93670006  0.87359772  0.11539121    -0.67300
Ni2637     Ni  0.85942359  0.75729817  0.19248451     1.34900
C2638       C  0.90619682  0.84827652  0.11028228     0.83800
O2639       O  0.88127179  0.84037222  0.20613463    -0.80200
O2640       O  0.86216555  0.78547549  0.21969873    -0.90500
C2641       C  0.95868876  0.91503122  0.17845132     0.83400
O2642       O  0.90433834  0.76456896  0.20065462    -0.68700
O2643       O  0.98548840  0.85573072  0.12021484    -0.88000
C2644       C  0.92826715  0.79297316  0.21011444     0.84200
C2645       C  0.86979051  0.81721110  0.22314340     1.05800
H2646       H  0.95890011  0.83555013  0.16613885     0.37600
O2647       O  0.94241400  0.84025290  0.15817479    -1.10600
O2648       O  0.89092037  0.81829296  0.12166831    -0.67300
Ni2649     Ni  0.90832626  0.79652519  0.14399599     1.26300
O2650       O  0.93156413  0.82310794  0.20546997    -0.67500
O2651       O  0.93977263  0.79927389  0.11852341    -0.79800
C2652       C  0.85434415  0.72245916  0.14561758     0.83600
O2653       O  0.87260921  0.75037223  0.13233829    -0.67000
Ni2654     Ni  0.97073185  0.88148583  0.13889164     1.27400
Ni2655     Ni  0.91235638  0.84147106  0.18204503     1.26100
H2656       H  0.85938705  0.79767293  0.16262298     0.38200
C2657       C  0.89946534  0.86987037  0.32000368     0.79300
N2658       N  0.92268680  0.90523525  0.32208260    -0.79000
C2659       C  0.93161812  0.92033551  0.34413435     0.81800
N2660       N  0.91629651  0.89946409  0.36406584    -0.78900
C2661       C  0.89298778  0.86421995  0.36228924     0.81900
N2662       N  0.88412666  0.84947095  0.34018392    -0.80600
C2663       C  0.53060217  0.80022559  0.33177740     0.79300
N2664       N  0.00177139  0.79331737  0.31340298    -0.79000
C2665       C  0.51935374  0.80475122  0.29061388     0.81800
N2666       N  0.55434786  0.82207349  0.28578717    -0.78900
C2667       C  0.57751294  0.82799336  0.30355366     0.81900
N2668       N  0.56521329  0.81715704  0.32632585    -0.80600
O2669       O  0.78782023  0.57807342  0.48537242    -0.81800
O2670       O  0.70923473  0.92175793  0.46721776    -0.66500
O2671       O  0.72768777  0.50932255  0.48560460    -1.13100
C2672       C  0.76062439  0.47697875  0.55767171     1.05100
O2673       O  0.67830700  0.89827253  0.50078921    -0.79700
O2674       O  0.67782033  0.93961482  0.53614255    -0.67300
Ni2675     Ni  0.74832156  0.55013181  0.46474100     1.34900
C2676       C  0.68724395  0.96967075  0.54475761     0.83800
O2677       O  0.70177709  0.97483531  0.44742893    -0.80200
O2678       O  0.71102762  0.52584060  0.44200679    -0.90500
C2679       C  0.68837953  0.89451887  0.48020722     0.83400
O2680       O  0.77612940  0.53881300  0.44529613    -0.68700
O2681       O  0.73739709  0.94642690  0.55524912    -0.88000
C2682       C  0.77934858  0.51199829  0.44308385     0.84200
C2683       C  0.70077045  0.00109418  0.43802824     1.05800
H2684       H  0.76010080  0.96217632  0.50333743     0.37600
O2685       O  0.73980976  0.96370532  0.50679470    -1.10600
O2686       O  0.71249056  0.49595321  0.53474984    -0.67300
Ni2687     Ni  0.75206881  0.50827268  0.51401098     1.26300
O2688       O  0.76512801  0.98813864  0.46041312    -0.67500
O2689       O  0.77398659  0.50306013  0.54235485    -0.79800
C2690       C  0.78673772  0.58295704  0.50778833     0.83600
O2691       O  0.76855464  0.55691248  0.52232161    -0.67000
Ni2692     Ni  0.70900179  0.92407082  0.52713450     1.27400
Ni2693     Ni  0.72031461  0.96828559  0.47719842     1.26100
H2694       H  0.70542153  0.50587311  0.49069673     0.38200
O2695       O  0.56043887  0.56419091  0.83191318    -0.81800
O2696       O  0.61699880  0.71576875  0.86204891    -0.66500
O2697       O  0.55552205  0.62384841  0.83543233    -1.13100
C2698       C  0.63185371  0.67289185  0.76754819     1.05100
O2699       O  0.61149454  0.73886899  0.82810340    -0.79700
O2700       O  0.58121139  0.70282619  0.78677944    -0.67300
Ni2701     Ni  0.53982128  0.58142572  0.85404324     1.34900
C2702       C  0.55775310  0.67202517  0.78005755     0.83800
O2703       O  0.55521517  0.65594894  0.87836642    -0.80200
O2704       O  0.51800200  0.59651051  0.87658584    -0.90500
C2705       C  0.62414921  0.74307048  0.84914425     0.83400
O2706       O  0.57801247  0.59703387  0.87621054    -0.68700
O2707       O  0.63959980  0.70287801  0.77595555    -0.88000
C2708       C  0.60525603  0.62704620  0.88015003     0.84200
C2709       C  0.52930630  0.62625061  0.88671332     1.05800
H2710       H  0.63489504  0.67953803  0.82557498     0.37600
O2711       O  0.61300297  0.67754906  0.82114181    -1.10600
O2712       O  0.55555682  0.64364299  0.78807295    -0.67300
Ni2713     Ni  0.58421875  0.63191918  0.80740034     1.26300
O2714       O  0.61376371  0.65439799  0.86696775    -0.67500
O2715       O  0.61362967  0.64320036  0.77916761    -0.79800
C2716       C  0.54879847  0.55776741  0.81053182     0.83600
O2717       O  0.55433502  0.58361388  0.79660755    -0.67000
Ni2718     Ni  0.62500564  0.71922283  0.80262526     1.27400
Ni2719     Ni  0.58516246  0.66843323  0.84988709     1.26100
H2720       H  0.53462816  0.62351022  0.83033203     0.38200
C2721       C  0.62553548  0.65899161  0.66580310     0.79300
N2722       N  0.64624002  0.67905292  0.64690997    -0.79000
C2723       C  0.63587140  0.66801390  0.62398927     0.81800
N2724       N  0.60571236  0.63671324  0.62019264    -0.78900
C2725       C  0.58517287  0.61638023  0.63894168     0.81900
N2726       N  0.59545933  0.62803940  0.66163078    -0.80600
C2727       C  0.96758603  0.66372279  0.65490141     0.79300
N2728       N  0.93496640  0.65756589  0.65990646    -0.79000
C2729       C  0.92438240  0.65755034  0.68287590     0.81800
N2730       N  0.94690831  0.66358597  0.70098636    -0.78900
C2731       C  0.97960134  0.67021168  0.69657499     0.81900
N2732       N  0.48373168  0.65771118  0.67344763    -0.80600
O2733       O  0.55406130  0.54203505  0.15221505    -0.81800
O2734       O  0.71391246  0.61151693  0.12541690    -0.66500
O2735       O  0.61952486  0.54864371  0.14869724    -1.13100
C2736       C  0.65388245  0.63947954  0.20679603     1.05100
O2737       O  0.73231652  0.61795349  0.16297789    -0.79700
O2738       O  0.69527436  0.60077586  0.20407427    -0.67300
Ni2739     Ni  0.58047072  0.53429505  0.12818057     1.34900
C2740       C  0.66986770  0.56917726  0.20750599     0.83800
O2741       O  0.66022108  0.54775679  0.11064138    -0.80200
O2742       O  0.60337267  0.52546234  0.10230047    -0.90500
C2743       C  0.73868608  0.62144142  0.14051975     0.83400
O2744       O  0.59507583  0.57974708  0.11390217    -0.68700
O2745       O  0.68402005  0.65488297  0.19661823    -0.88000
C2746       C  0.62512402  0.60215074  0.10519995     0.84200
C2747       C  0.63382931  0.53189191  0.09659250     1.05800
H2748       H  0.66376703  0.62868655  0.15226171     0.37600
O2749       O  0.66683433  0.61065121  0.16001626    -1.10600
O2750       O  0.64175004  0.55547091  0.19529884    -0.67300
Ni2751     Ni  0.62302753  0.57773640  0.17505005     1.26300
O2752       O  0.65316572  0.60390802  0.11205047    -0.67500
O2753       O  0.62844839  0.60863872  0.20121341    -0.79800
C2754       C  0.55052671  0.53237414  0.17429048     0.83600
O2755       O  0.57726815  0.54254413  0.18750509    -0.67000
Ni2756     Ni  0.70701920  0.63579475  0.17919802     1.27400
Ni2757     Ni  0.66552105  0.57976716  0.13565337     1.26100
H2758       H  0.61834603  0.52736852  0.15488807     0.38200
C2759       C  0.66838464  0.71537681  0.29292823     0.79300
N2760       N  0.66426465  0.74380005  0.29209689    -0.79000
C2761       C  0.66857827  0.76296128  0.31200057     0.81800
N2762       N  0.67722392  0.75316149  0.33292133    -0.78900
C2763       C  0.68124727  0.72477259  0.33432369     0.81900
N2764       N  0.67662760  0.70563015  0.31424501    -0.80600
C2765       C  0.69229358  0.98915048  0.33566051     0.79300
N2766       N  0.69262369  0.95964607  0.32981939    -0.79000
C2767       C  0.69284069  0.95097700  0.30659586     0.81800
N2768       N  0.69242362  0.97245914  0.28896826    -0.78900
C2769       C  0.68651377  0.49513912  0.28800177     0.81900
N2770       N  0.68735012  0.50271827  0.31180706    -0.80600
C2771       C  0.66171374  0.67774181  0.97181809     0.79300
N2772       N  0.67738737  0.71384502  0.97187740    -0.79000
C2773       C  0.68020293  0.73099115  0.99265357     0.81800
N2774       N  0.66781816  0.71166459  0.01341093    -0.78900
C2775       C  0.65240124  0.67595289  0.01397085     0.81900
N2776       N  0.64919816  0.65887732  0.99305230    -0.80600
O2777       O  0.64616269  0.86629659  0.82469800    -0.81800
O2778       O  0.54893316  0.92968674  0.79870216    -0.66500
O2779       O  0.61780344  0.91031195  0.82356203    -1.13100
C2780       C  0.53674592  0.84654011  0.88649646     1.05100
O2781       O  0.52845469  0.93293169  0.83446972    -0.79700
O2782       O  0.56892474  0.93534707  0.87105710    -0.67300
Ni2783     Ni  0.64054559  0.89570794  0.80130606     1.34900
C2784       C  0.59593318  0.93572968  0.87875037     0.83800
O2785       O  0.61469539  0.95328089  0.78717087    -0.80200
O2786       O  0.63962375  0.92406401  0.77457735    -0.90500
C2787       C  0.53354932  0.94055036  0.81211225     0.83400
O2788       O  0.59711540  0.85597043  0.79139438    -0.68700
O2789       O  0.52427161  0.86603724  0.88144160    -0.88000
C2790       C  0.57491909  0.85967540  0.77945485     0.84200
C2791       C  0.63031753  0.94660835  0.77097349     1.05800
H2792       H  0.53542955  0.86340333  0.82667091     0.37600
O2793       O  0.55278975  0.88481324  0.83447166    -1.10600
O2794       O  0.60494881  0.91416489  0.87156088    -0.67300
Ni2795     Ni  0.58766648  0.87649069  0.84804003     1.26300
O2796       O  0.56669443  0.88250174  0.78539893    -0.67500
O2797       O  0.55705705  0.84324612  0.87222091    -0.79800
C2798       C  0.64093030  0.85894312  0.84713170     0.83600
O2799       O  0.62251800  0.86687936  0.85996245    -0.67000
Ni2800     Ni  0.52824344  0.89834171  0.85618124     1.27400
Ni2801     Ni  0.58315209  0.91903026  0.81033471     1.26100
H2802       H  0.63573983  0.93175931  0.83101387     0.38200
C2803       C  0.54681999  0.83280959  0.63809118     0.79300
N2804       N  0.54813897  0.82056290  0.66083690    -0.79000
C2805       C  0.54766259  0.83867337  0.68045670     0.81800
N2806       N  0.54554012  0.86792176  0.67705582    -0.78900
C2807       C  0.05019737  0.88668083  0.65416290     0.81900
N2808       N  0.05056786  0.86898834  0.63456353    -0.80600
C2809       C  0.61860114  0.97837877  0.63003669     0.79300
N2810       N  0.60241195  0.49414632  0.62736405    -0.79000
C2811       C  0.59015446  0.50305011  0.64668260     0.81800
N2812       N  0.59373855  0.99352040  0.66955219    -0.78900
C2813       C  0.61521043  0.98047778  0.67237007     0.81900
N2814       N  0.62771911  0.97317353  0.65244620    -0.80600
C2815       C  0.05651352  0.82711746  0.98550869     0.79300
N2816       N  0.03901006  0.82932021  0.00483203    -0.79000
C2817       C  0.04621350  0.82269518  0.02756743     0.81800
N2818       N  0.07020116  0.81282698  0.03077540    -0.78900
C2819       C  0.08831552  0.81111252  0.01170668     0.81900
N2820       N  0.08102662  0.81821495  0.98925346    -0.80600
C2821       C  0.66928957  0.54448851  0.99649123     0.79300
N2822       N  0.69974367  0.57534546  0.99171687    -0.79000
C2823       C  0.71184718  0.58585850  0.96878082     0.81800
N2824       N  0.69259900  0.56471076  0.95040660    -0.78900
C2825       C  0.66129578  0.53420161  0.95476081     0.81900
N2826       N  0.64993460  0.52398813  0.97795370    -0.80600
C2827       C  0.95456677  0.49556126  0.18321050     0.79300
N2828       N  0.94930020  0.96316872  0.18845576    -0.79000
C2829       C  0.97187039  0.95121367  0.18709513     0.81800
N2830       N  0.50760861  0.97674798  0.18574798    -0.78900
C2831       C  0.51453829  0.50854089  0.18338885     0.81900
N2832       N  0.49183702  0.52043703  0.18290920    -0.80600
C2833       C  0.81677448  0.67765547  0.51523098     0.79300
N2834       N  0.79529649  0.64169699  0.51415825    -0.79000
C2835       C  0.80824325  0.61980868  0.51630492     0.81800
N2836       N  0.84347224  0.63444698  0.51840516    -0.78900
C2837       C  0.86569688  0.67030801  0.51964836     0.81900
N2838       N  0.85214268  0.69179746  0.51718451    -0.80600
C2839       C  0.68858833  0.81194013  0.47046311     0.79300
N2840       N  0.69946519  0.84713071  0.47095219    -0.79000
C2841       C  0.67587837  0.85781594  0.47261813     0.81800
N2842       N  0.64107547  0.83268170  0.47491612    -0.78900
C2843       C  0.62963119  0.79740206  0.47397790     0.81900
N2844       N  0.65366990  0.78733520  0.47254003    -0.80600
C2845       C  0.52069119  0.96313486  0.80265802     0.79300
N2846       N  0.98170349  0.94784803  0.80075567    -0.79000
C2847       C  0.96839863  0.96948309  0.80041890     0.81800
N2848       N  0.98783192  0.50779815  0.80450273    -0.78900
C2849       C  0.52526730  0.52022257  0.80373384     0.81900
N2850       N  0.53714372  0.49729533  0.80474754    -0.80600
C2851       C  0.65500373  0.83770142  0.85720073     0.79300
N2852       N  0.69044684  0.85225048  0.85732828    -0.79000
C2853       C  0.70472513  0.83141399  0.85809066     0.81800
N2854       N  0.68261918  0.79525445  0.85737484    -0.78900
C2855       C  0.64696811  0.78010460  0.85749081     0.81900
N2856       N  0.63369884  0.80174953  0.85675715    -0.80600
C2857       C  0.82393710  0.62829218  0.13660174     0.79300
N2858       N  0.84591280  0.66425915  0.13734617    -0.79000
C2859       C  0.83327464  0.68650670  0.13547841     0.81800
N2860       N  0.79789698  0.67198139  0.13410620    -0.78900
C2861       C  0.77550785  0.63611317  0.13324209     0.81900
N2862       N  0.78876092  0.61451265  0.13533864    -0.80600
C2863       C  0.63993976  0.94446716  0.72705667    -0.10100
C2864       C  0.63375454  0.96140503  0.74603564     0.06100
C2865       C  0.62576349  0.98775586  0.74009393    -0.03800
C2866       C  0.62213239  0.99485500  0.71591827    -0.08300
C2867       C  0.62541104  0.97576097  0.69709610     0.05300
C2868       C  0.63560818  0.95103598  0.70291155    -0.03300
Br2869     Br  0.64089158  0.92243302  0.67955985    -0.03000
H2870       H  0.64601668  0.92407255  0.73095204     0.09200
H2871       H  0.61537492  0.01472597  0.71192863     0.07200
Br2872     Br  0.61804946  0.01439417  0.76369639    -0.03400
C2873       C  0.53017078  0.83317452  0.74659581    -0.10100
C2874       C  0.56285905  0.84146403  0.75578493     0.06100
C2875       C  0.58629556  0.83821700  0.74011482    -0.03800
C2876       C  0.57889449  0.83209129  0.71541799    -0.08300
C2877       C  0.54790104  0.82773252  0.70592898     0.05300
C2878       C  0.52230919  0.82530912  0.72212994    -0.03300
Br2879     Br  0.98218834  0.81588193  0.70719449    -0.03000
H2880       H  0.51131484  0.83442175  0.75816794     0.09200
H2881       H  0.59890093  0.83411552  0.70327781     0.07200
Br2882     Br  0.63121986  0.84661934  0.75001880    -0.03400
C2883       C  0.59647533  0.96726706  0.91554734    -0.10100
C2884       C  0.61562562  0.96060719  0.89845649     0.06100
C2885       C  0.65208800  0.97630633  0.90158493    -0.03800
C2886       C  0.66838709  0.99776124  0.92149349    -0.08300
C2887       C  0.64217276  0.51012195  0.93466746     0.05300
C2888       C  0.60522564  0.48950909  0.93418120    -0.03300
Br2889     Br  0.57610300  0.49367446  0.95776092    -0.03000
H2890       H  0.56841383  0.95541474  0.91362047     0.09200
H2891       H  0.69641529  0.00957977  0.92361675     0.07200
Br2892     Br  0.68126240  0.97066052  0.87896417    -0.03400
C2893       C  0.54434289  0.80085091  0.94274909    -0.10100
C2894       C  0.54166162  0.82138652  0.96075941     0.06100
C2895       C  0.53144067  0.84570202  0.95413956    -0.03800
C2896       C  0.52607419  0.85037634  0.92983774    -0.08300
C2897       C  0.53146244  0.83184417  0.91155106     0.05300
C2898       C  0.53901682  0.80553224  0.91840558    -0.03300
Br2899     Br  0.54302847  0.77559206  0.89555199    -0.03000
H2900       H  0.55182508  0.78179738  0.94754771     0.09200
H2901       H  0.52066274  0.87105438  0.92517021     0.07200
Br2902     Br  0.02925111  0.88263946  0.97413645    -0.03400
C2903       C  0.62379584  0.52137737  0.02863668    -0.10100
C2904       C  0.65830139  0.53320878  0.02180516     0.06100
C2905       C  0.68242134  0.53679039  0.03964224    -0.03800
C2906       C  0.67294160  0.53276061  0.06407380    -0.08300
C2907       C  0.63934095  0.52476426  0.07126848     0.05300
C2908       C  0.61391374  0.51683750  0.05297540    -0.03300
Br2909     Br  0.56562036  0.50207658  0.05881066    -0.03000
H2910       H  0.60481269  0.51758991  0.01498524     0.09200
H2911       H  0.69261521  0.53776752  0.07745608     0.07200
Br2912     Br  0.72858760  0.54701061  0.03160202    -0.03400
C2913       C  0.66262360  0.67546890  0.05789890    -0.10100
C2914       C  0.64219373  0.65730045  0.03780858     0.06100
C2915       C  0.61282475  0.62274249  0.04136868    -0.03800
C2916       C  0.60557224  0.60658652  0.06436911    -0.08300
C2917       C  0.62756395  0.62390857  0.08393582     0.05300
C2918       C  0.65573603  0.65903787  0.08070758    -0.03300
Br2919     Br  0.68578073  0.68550278  0.10680766    -0.03000
H2920       H  0.68495154  0.70230667  0.05575817     0.09200
H2921       H  0.58384429  0.57946146  0.06662359     0.07200
Br2922     Br  0.58160482  0.59621390  0.01584722    -0.03400
C2923       C  0.64699551  0.53243694  0.24519752    -0.10100
C2924       C  0.67335629  0.54849893  0.22735590     0.06100
C2925       C  0.70436064  0.54768015  0.23011599    -0.03800
C2926       C  0.70888550  0.53170736  0.25069441    -0.08300
C2927       C  0.68304901  0.51658768  0.26883963     0.05300
C2928       C  0.65157193  0.51636764  0.26580692    -0.03300
Br2929     Br  0.61328783  0.49235236  0.28844985    -0.03000
H2930       H  0.62302534  0.53282370  0.24326043     0.09200
H2931       H  0.72233867  0.01387794  0.25103374     0.07200
Br2932     Br  0.72418871  0.04081743  0.20217169    -0.03400
C2933       C  0.66977414  0.71253139  0.24841086    -0.10100
C2934       C  0.66131391  0.69439324  0.27087699     0.06100
C2935       C  0.64495127  0.65695894  0.27138476    -0.03800
C2936       C  0.63946640  0.63893390  0.24979406    -0.08300
C2937       C  0.65027909  0.65753370  0.22759672     0.05300
C2938       C  0.66456711  0.69452869  0.22694254    -0.03300
Br2939     Br  0.67792187  0.72175943  0.19718610    -0.03000
H2940       H  0.68148181  0.74111197  0.24752401     0.09200
H2941       H  0.62860260  0.61046655  0.25050003     0.07200
Br2942     Br  0.62894958  0.62860911  0.30061909    -0.03400
C2943       C  0.56860591  0.53280078  0.61923136    -0.10100
C2944       C  0.57009488  0.52107928  0.64283956     0.06100
C2945       C  0.55666864  0.53166308  0.66200148    -0.03800
C2946       C  0.54836545  0.55770056  0.65752136    -0.08300
C2947       C  0.55994901  0.57783382  0.63594045     0.05300
C2948       C  0.56329852  0.56114151  0.61562384    -0.03300
Br2949     Br  0.56665632  0.57943015  0.58334346    -0.03000
H2950       H  0.57541390  0.52291572  0.60375066     0.09200
H2951       H  0.54153983  0.56799836  0.67278877     0.07200
Br2952     Br  0.55435346  0.51774426  0.69536345    -0.03400
C2953       C  0.54800781  0.69595495  0.74167916    -0.10100
C2954       C  0.53430291  0.66928354  0.76001217     0.06100
C2955       C  0.50062809  0.63889628  0.75690030    -0.03800
C2956       C  0.48183756  0.63566146  0.73587384    -0.08300
C2957       C  0.49597502  0.66191849  0.71743657     0.05300
C2958       C  0.03421930  0.70236884  0.72140767    -0.03300
Br2959     Br  0.05523559  0.74244659  0.69935672    -0.03000
H2960       H  0.57393024  0.71934578  0.74344700     0.09200
H2961       H  0.45586193  0.61239947  0.73390189     0.07200
Br2962     Br  0.47818424  0.60143270  0.78091566    -0.03400
C2963       C  0.64311764  0.70071353  0.72663992    -0.10100
C2964       C  0.64051918  0.67305425  0.74163935     0.06100
C2965       C  0.63934776  0.64387038  0.73066700    -0.03800
C2966       C  0.63737592  0.64127005  0.70553177    -0.08300
C2967       C  0.63670770  0.66739919  0.69095036     0.05300
C2968       C  0.64081167  0.69787098  0.70158107    -0.03300
Br2969     Br  0.63789753  0.73355734  0.68310242    -0.03000
H2970       H  0.64371950  0.72338392  0.73439454     0.09200
H2971       H  0.63451924  0.61776573  0.69737189     0.07200
Br2972     Br  0.63917623  0.60626669  0.74880175    -0.03400
C2973       C  0.65914627  0.66318118  0.90455037    -0.10100
C2974       C  0.62595216  0.63206528  0.90253389     0.06100
C2975       C  0.61033296  0.61118964  0.92381034    -0.03800
C2976       C  0.62407818  0.62519539  0.94642862    -0.08300
C2977       C  0.65427973  0.65907252  0.94842067     0.05300
C2978       C  0.67386012  0.67602311  0.92717945    -0.03300
Br2979     Br  0.72128093  0.71548117  0.92790371    -0.03000
H2980       H  0.67304212  0.67854870  0.88850341     0.09200
H2981       H  0.60967288  0.61037112  0.96247699     0.07200
Br2982     Br  0.56890659  0.56467708  0.92393934    -0.03400
C2983       C  0.61587684  0.96024344  0.58736979    -0.10100
C2984       C  0.63561625  0.97475712  0.60839193     0.06100
C2985       C  0.67199294  0.98796442  0.60776361    -0.03800
C2986       C  0.68771304  0.98655580  0.58650621    -0.08300
C2987       C  0.66809279  0.97174795  0.56562701     0.05300
C2988       C  0.63178959  0.95818782  0.56612831    -0.03300
Br2989     Br  0.60360931  0.93861248  0.53806533    -0.03000
H2990       H  0.58802515  0.95047260  0.58747868     0.09200
H2991       H  0.71569036  0.99687494  0.58637956     0.07200
Br2992     Br  0.70263785  0.01046726  0.63453890    -0.03400
C2993       C  0.66743145  0.96456996  0.37623375    -0.10100
C2994       C  0.68890896  0.99469588  0.36150047     0.06100
C2995       C  0.70943362  0.02785018  0.37234443    -0.03800
C2996       C  0.70989271  0.02988943  0.39755317    -0.08300
C2997       C  0.69067444  0.99916555  0.41236558     0.05300
C2998       C  0.66825767  0.96651448  0.40136259    -0.03300
Br2999     Br  0.63805544  0.41743488  0.41499547    -0.03000
H3000       H  0.64930071  0.43020079  0.36319046     0.09200
H3001       H  0.72783450  0.05520681  0.40556760     0.07200
Br3002     Br  0.74103823  0.07008999  0.35400723    -0.03400
C3003       C  0.63777639  0.85829675  0.31989180    -0.10100
C3004       C  0.61602225  0.85084825  0.29968328     0.06100
C3005       C  0.63156301  0.87006378  0.27792535    -0.03800
C3006       C  0.66457629  0.90121563  0.27873039    -0.08300
C3007       C  0.68103553  0.91367123  0.30104145     0.05300
C3008       C  0.67100476  0.88876935  0.32024026    -0.03300
Br3009     Br  0.69815946  0.89810609  0.34907565    -0.03000
H3010       H  0.62791448  0.84259627  0.33641308     0.09200
H3011       H  0.67406778  0.91846606  0.26280942     0.07200
Br3012     Br  0.60853211  0.85840963  0.24729556    -0.03400
C3013       C  0.00872938  0.79242213  0.06402880    -0.10100
C3014       C  0.02563514  0.82255432  0.04847899     0.06100
C3015       C  0.02305589  0.85224011  0.05348757    -0.03800
C3016       C  0.00368793  0.85137564  0.07345258    -0.08300
C3017       C  0.98705033  0.82160814  0.08929548     0.05300
C3018       C  0.98931261  0.79163253  0.08426609    -0.03300
Br3019     Br  0.96834951  0.75010751  0.10497695    -0.03000
H3020       H  0.47661162  0.76990760  0.04005535     0.09200
H3021       H  0.00228876  0.87473964  0.07691795     0.07200
Br3022     Br  0.04849125  0.89624005  0.03548212    -0.03400
C3023       C  0.88068240  0.81129371  0.26625068    -0.10100
C3024       C  0.87147003  0.82830315  0.24848561     0.06100
C3025       C  0.86975888  0.85819209  0.25498532    -0.03800
C3026       C  0.87830654  0.87098362  0.27852527    -0.08300
C3027       C  0.88866748  0.85453201  0.29584925     0.05300
C3028       C  0.88953192  0.82427804  0.28957034    -0.03300
Br3029     Br  0.90678060  0.80229157  0.31118831    -0.03000
H3030       H  0.88328628  0.78898602  0.26162763     0.09200
H3031       H  0.87720528  0.89411912  0.28327151     0.07200
Br3032     Br  0.85576218  0.88238342  0.23270860    -0.03400
C3033       C  0.98236665  0.82436072  0.23395563    -0.10100
C3034       C  0.95174588  0.79199496  0.22875746     0.06100
C3035       C  0.94212706  0.76203261  0.24411060    -0.03800
C3036       C  0.96259024  0.76549795  0.26436602    -0.08300
C3037       C  0.99243244  0.79832009  0.26970648     0.05300
C3038       C  0.49763673  0.83232681  0.26110913    -0.03300
Br3039     Br  0.52818735  0.87861252  0.27396886    -0.03000
H3040       H  0.47875088  0.85391255  0.23479999     0.09200
H3041       H  0.95513395  0.74253788  0.27602283     0.07200
Br3042     Br  0.90067776  0.71627102  0.23960762    -0.03400
C3043       C  0.48002154  0.75649470  0.39033042    -0.10100
C3044       C  0.50561172  0.77600173  0.40789937     0.06100
C3045       C  0.53875828  0.80395538  0.39988698    -0.03800
C3046       C  0.54525269  0.81211400  0.37520895    -0.08300
C3047       C  0.52006964  0.79190005  0.35767813     0.05300
C3048       C  0.48710878  0.76361758  0.36557737    -0.03300
Br3049     Br  0.45191835  0.73128280  0.34383058    -0.03000
H3050       H  0.45467508  0.73403256  0.39570599     0.09200
H3051       H  0.57093660  0.83394519  0.36970924     0.07200
Br3052     Br  0.57714912  0.83108358  0.42117489    -0.03400
C3053       C  0.51260680  0.66944115  0.59540055    -0.10100
C3054       C  0.98973261  0.66423527  0.57892789     0.06100
C3055       C  0.95514841  0.64475932  0.58815659    -0.03800
C3056       C  0.94900952  0.64369082  0.61294675    -0.08300
C3057       C  0.97673828  0.66114983  0.62935357     0.05300
C3058       C  0.50582423  0.66612422  0.62035234    -0.03300
Br3059     Br  0.54622124  0.68630006  0.64069472    -0.03000
H3060       H  0.53966571  0.68411399  0.58919596     0.09200
H3061       H  0.92202435  0.62982352  0.61927315     0.07200
Br3062     Br  0.91498997  0.61988206  0.56777910    -0.03400
C3063       C  0.56327429  0.83201198  0.59531970    -0.10100
C3064       C  0.54317171  0.81291124  0.61586393     0.06100
C3065       C  0.01896170  0.78413642  0.61261090    -0.03800
C3066       C  0.01040966  0.76819703  0.58995473    -0.08300
C3067       C  0.52879409  0.78098066  0.56996459     0.05300
C3068       C  0.55694314  0.81605913  0.57273164    -0.03300
Br3069     Br  0.58756559  0.84285396  0.54618009    -0.03000
H3070       H  0.58405882  0.85957309  0.59686628     0.09200
H3071       H  0.98857957  0.74106850  0.58865319     0.07200
Br3072     Br  0.98955926  0.75745470  0.63970176    -0.03400
C3073       C  0.74389148  0.82797604  0.97723566    -0.10100
C3074       C  0.75791480  0.83905633  0.00039325     0.06100
C3075       C  0.73674760  0.81972261  0.02042233    -0.03800
C3076       C  0.70812512  0.78549813  0.01711859    -0.08300
C3077       C  0.70020173  0.77044429  0.99402727     0.05300
C3078       C  0.71563741  0.79360721  0.97379102    -0.03300
Br3079     Br  0.70190850  0.78079773  0.94100946    -0.03000
H3080       H  0.75768790  0.84406990  0.96139282     0.09200
H3081       H  0.69423652  0.76973781  0.03303240     0.07200
Br3082     Br  0.74704278  0.83719733  0.05265579    -0.03400
C3083       C  0.84014316  0.84236375  0.06373684    -0.10100
C3084       C  0.86267934  0.86707180  0.04589458     0.06100
C3085       C  0.89900764  0.88657370  0.05030626    -0.03800
C3086       C  0.91197933  0.87998483  0.07142282    -0.08300
C3087       C  0.88963525  0.85452271  0.08894940     0.05300
C3088       C  0.85316037  0.83606599  0.08507849    -0.03300
Br3089     Br  0.81959304  0.80309588  0.10838554    -0.03000
H3090       H  0.81207168  0.82725972  0.06098953     0.09200
H3091       H  0.94012467  0.89489487  0.07395036     0.07200
Br3092     Br  0.93259968  0.92389455  0.02917080    -0.03400
C3093       C  0.83594214  0.60032057  0.71202241    -0.10100
C3094       C  0.81629726  0.58834031  0.69082333     0.06100
C3095       C  0.82868146  0.61136261  0.67033757    -0.03800
C3096       C  0.86417648  0.63787718  0.66879692    -0.08300
C3097       C  0.88663145  0.64327746  0.68818441     0.05300
C3098       C  0.87109427  0.62780115  0.71096372    -0.03300
Br3099     Br  0.89604713  0.63907711  0.74091905    -0.03000
H3100       H  0.82576978  0.58521174  0.72879016     0.09200
H3101       H  0.87467868  0.65204151  0.65175420     0.07200
Br3102     Br  0.79940177  0.60587994  0.64334858    -0.03400
C3103       C  0.75652229  0.95403768  0.60344649    -0.10100
C3104       C  0.77136091  0.48335654  0.58356590     0.06100
C3105       C  0.79043580  0.51793556  0.59291289    -0.03800
C3106       C  0.79331256  0.52249479  0.61775910    -0.08300
C3107       C  0.77679469  0.49375943  0.63447052     0.05300
C3108       C  0.76077059  0.95942568  0.62842997    -0.03300
Br3109     Br  0.73089602  0.91999656  0.64958973    -0.03000
H3110       H  0.73686848  0.92787839  0.59744415     0.09200
H3111       H  0.80822522  0.54947318  0.62396016     0.07200
Br3112     Br  0.81119648  0.56121778  0.57375314    -0.03400
C3113       C  0.99822014  0.92756843  0.67068022    -0.10100
C3114       C  0.98022817  0.92156727  0.64894363     0.06100
C3115       C  0.99727234  0.92120424  0.62759458    -0.03800
C3116       C  0.02543512  0.91581900  0.62935448    -0.08300
C3117       C  0.03663650  0.91103684  0.65210295     0.05300
C3118       C  0.02568878  0.92143896  0.67273100    -0.03300
Br3119     Br  0.04174043  0.92233751  0.70509416    -0.03000
H3120       H  0.98759697  0.93154107  0.68704251     0.09200
H3121       H  0.03556061  0.91116689  0.61300342     0.07200
Br3122     Br  0.98167903  0.92435642  0.59585567    -0.03400
C3123       C  0.84179885  0.85634488  0.70378175    -0.10100
C3124       C  0.87552729  0.86232743  0.70036906     0.06100
C3125       C  0.89425247  0.86154678  0.72077296    -0.03800
C3126       C  0.88003553  0.85723103  0.74393687    -0.08300
C3127       C  0.84726749  0.85374250  0.74753414     0.05300
C3128       C  0.82765895  0.85248696  0.72692900    -0.03300
Br3129     Br  0.78311736  0.84954749  0.72824719    -0.03000
H3130       H  0.82704829  0.85674616  0.68836060     0.09200
H3131       H  0.89533488  0.85780878  0.75930871     0.07200
Br3132     Br  0.93915524  0.86573378  0.71868491    -0.03400
C3133       C  0.76972454  0.92288314  0.75259177    -0.10100
C3134       C  0.80308584  0.93601892  0.76296275     0.06100
C3135       C  0.83155659  0.96870291  0.75386134    -0.03800
C3136       C  0.82625172  0.98688402  0.73504165    -0.08300
C3137       C  0.79334201  0.97325884  0.72441423     0.05300
C3138       C  0.76480813  0.94106082  0.73335752    -0.03300
Br3139     Br  0.71871221  0.92164196  0.72035125    -0.03000
H3140       H  0.74744139  0.89790192  0.75901809     0.09200
H3141       H  0.84834835  0.01182584  0.72831410     0.07200
Br3142     Br  0.87868244  0.99101046  0.76580399    -0.03400
C3143       C  0.89503715  0.91613885  0.92174113    -0.10100
C3144       C  0.86894180  0.89126433  0.90626514     0.06100
C3145       C  0.84342378  0.85784951  0.91602403    -0.03800
C3146       C  0.84111755  0.85219932  0.94099368    -0.08300
C3147       C  0.86334618  0.87955149  0.95658350     0.05300
C3148       C  0.89216757  0.91065869  0.94679769    -0.03300
Br3149     Br  0.92493440  0.94854800  0.96665284    -0.03000
H3150       H  0.91564297  0.94174884  0.91472066     0.09200
H3151       H  0.81934001  0.82757665  0.94840556     0.07200
Br3152     Br  0.80928339  0.81995889  0.89665813    -0.03400
C3153       C  0.64535151  0.69665843  0.58377314    -0.10100
C3154       C  0.65884621  0.68675672  0.60320486     0.06100
C3155       C  0.69226956  0.69095472  0.60112783    -0.03800
C3156       C  0.71194307  0.70569851  0.57995840    -0.08300
C3157       C  0.69899342  0.71680998  0.56088293     0.06200
C3158       C  0.66534012  0.71208456  0.56278982    -0.03300
Br3159     Br  0.64532252  0.72552672  0.53710271    -0.03000
H3160       H  0.61922463  0.69250513  0.58499825     0.09200
H3161       H  0.73802364  0.70973314  0.57873629     0.07200
Br3162     Br  0.71176918  0.67582067  0.62612980    -0.03400
C3163       C  0.71838561  0.69950069  0.38720717    -0.10100
C3164       C  0.70322877  0.70717820  0.40671739     0.06100
C3165       C  0.67575672  0.71348133  0.40178575    -0.03800
C3166       C  0.66762040  0.71662544  0.37791296    -0.08300
C3167       C  0.68568864  0.71303202  0.35851449     0.05300
C3168       C  0.70970369  0.70216942  0.36327657    -0.03300
Br3169     Br  0.73406852  0.69426858  0.33802487    -0.03000
H3170       H  0.73880975  0.69360015  0.39035643     0.09200
H3171       H  0.64780629  0.72335696  0.37447198     0.07200
Br3172     Br  0.64865699  0.71936237  0.42619359    -0.03400
C3173       C  0.87983203  0.86601355  0.58932496    -0.10100
C3174       C  0.86638235  0.84750495  0.61149442     0.06100
C3175       C  0.83591660  0.81306200  0.61138445    -0.03800
C3176       C  0.81966221  0.79847944  0.58945539    -0.08300
C3177       C  0.83318631  0.81750263  0.56760519     0.05300
C3178       C  0.86360736  0.85129104  0.56759223    -0.03300
Br3179     Br  0.88404087  0.87801417  0.53818657    -0.03000
H3180       H  0.90304372  0.89239382  0.58879215     0.09200
H3181       H  0.79574966  0.77256243  0.58951168     0.07200
Br3182     Br  0.81538381  0.78389524  0.63995707    -0.03400
C3183       C  0.81830406  0.81968010  0.40717710    -0.10100
C3184       C  0.83136053  0.80585682  0.42452823     0.06100
C3185       C  0.86623880  0.81356475  0.42192951    -0.03800
C3186       C  0.88626952  0.83283484  0.40156109    -0.08300
C3187       C  0.87202807  0.84435547  0.38363901     0.05300
C3188       C  0.83825520  0.83866633  0.38690057    -0.03300
Br3189     Br  0.81827659  0.85643548  0.36407377    -0.03000
H3190       H  0.79180975  0.81443055  0.40876307     0.09200
H3191       H  0.91284790  0.83845343  0.39955063     0.07200
Br3192     Br  0.88837502  0.79946856  0.44564823    -0.03400
C3193       C  0.76977755  0.62710222  0.98607436    -0.10100
C3194       C  0.74952435  0.61346014  0.96516476     0.06100
C3195       C  0.76721072  0.61434230  0.94387418    -0.03800
C3196       C  0.79876146  0.61502735  0.94590996    -0.08300
C3197       C  0.82185984  0.10864633  0.97487132     0.05300
C3198       C  0.80124774  0.62763785  0.98824789    -0.03300
Br3199     Br  0.82463809  0.64036321  0.01874813    -0.03000
H3200       H  0.75846119  0.63104148  0.00210779     0.09200
H3201       H  0.81893804  0.10476200  0.93593103     0.07200
Br3202     Br  0.74736470  0.60921468  0.91238346    -0.03400
C3203       C  0.82038053  0.98592640  0.93865633    -0.10100
C3204       C  0.84478468  0.02245512  0.94043703     0.06100
C3205       C  0.86656001  0.04119132  0.92047250    -0.03800
C3206       C  0.86343937  0.02341737  0.89918070    -0.08300
C3207       C  0.83925025  0.98667874  0.89726550     0.05300
C3208       C  0.81754646  0.96790462  0.91741760    -0.03300
Br3209     Br  0.78580772  0.91731648  0.91808945    -0.03000
H3210       H  0.80334215  0.97130429  0.95387393     0.09200
H3211       H  0.88119887  0.03821771  0.88430981     0.07200
Br3212     Br  0.90316297  0.09037617  0.92201469    -0.03400
C3213       C  0.60442307  0.73998500  0.03429877    -0.10100
C3214       C  0.59910689  0.72353857  0.01190544     0.06100
C3215       C  0.61181200  0.74586632  0.99094651    -0.03800
C3216       C  0.61810633  0.78030866  0.99205344    -0.08300
C3217       C  0.10716540  0.79156157  0.01395132     0.05300
C3218       C  0.10460160  0.77248070  0.03536274    -0.03300
Br3219     Br  0.10830048  0.79162746  0.06673222    -0.03000
H3220       H  0.08842434  0.72082551  0.05013108     0.09200
H3221       H  0.62235838  0.79517093  0.97528869     0.07200
Br3222     Br  0.61436158  0.72973081  0.95943264    -0.03400
C3223       C  0.52005982  0.65819785  0.91948738    -0.10100
C3224       C  0.51399912  0.62593221  0.91062806     0.06100
C3225       C  0.49978327  0.59595687  0.92679097    -0.03800
C3226       C  0.50032324  0.60099969  0.95174180    -0.08300
C3227       C  0.51212624  0.63484140  0.96056596     0.05300
C3228       C  0.51796698  0.66233840  0.94417820    -0.03300
Br3229     Br  0.52432595  0.70640388  0.95488922    -0.03000
H3230       H  0.52839931  0.68089433  0.90737978     0.09200
H3231       H  0.49373692  0.57904555  0.96417851     0.07200
Br3232     Br  0.48078104  0.54789002  0.91669381    -0.03400
C3233       C  0.95409527  0.97910799  0.32422650    -0.10100
C3234       C  0.94842599  0.95947356  0.34580990     0.06100
C3235       C  0.94601215  0.97456692  0.36742241    -0.03800
C3236       C  0.93622428  0.99995516  0.36618277    -0.08300
C3237       C  0.93104714  0.01157572  0.34362876     0.05300
C3238       C  0.94569931  0.00552312  0.32301777    -0.03300
Br3239     Br  0.95317292  0.52426521  0.29126155    -0.03000
H3240       H  0.95993693  0.97062088  0.30760160     0.09200
H3241       H  0.92872954  0.00715858  0.38268647     0.07200
Br3242     Br  0.95128056  0.95871090  0.39883286    -0.03400
C3243       C  0.80209412  0.53411366  0.40148567    -0.10100
C3244       C  0.80003358  0.51282322  0.42161313     0.06100
C3245       C  0.81533777  0.49187450  0.41950024    -0.03800
C3246       C  0.83216020  0.49279060  0.39780557    -0.08300
C3247       C  0.83369340  0.51384393  0.37774171     0.05300
C3248       C  0.81856958  0.53476949  0.37988276    -0.03300
Br3249     Br  0.82161335  0.56663921  0.35452551    -0.03000
H3250       H  0.79032937  0.55026079  0.40230583     0.09200
H3251       H  0.84402092  0.47676088  0.39657510     0.07200
Br3252     Br  0.80354959  0.95496873  0.44358869    -0.03400
C3253       C  0.59484513  0.76683009  0.29759812    -0.10100
C3254       C  0.58076813  0.75590487  0.32110518     0.06100
C3255       C  0.60405327  0.77031436  0.34074711    -0.03800
C3256       C  0.64002943  0.78631142  0.33633948    -0.08300
C3257       C  0.65169664  0.78432479  0.31323284     0.05300
C3258       C  0.63085020  0.78269259  0.29369688    -0.03300
Br3259     Br  0.64880370  0.79368632  0.26125600    -0.03000
H3260       H  0.57787920  0.75991093  0.28210617     0.09200
H3261       H  0.65726776  0.79274299  0.35165089     0.07200
Br3262     Br  0.58949201  0.76617987  0.37386221    -0.03400
C3263       C  0.95276954  0.65563929  0.38209487    -0.10100
C3264       C  0.98478234  0.66063997  0.37414146     0.06100
C3265       C  0.51310266  0.66350505  0.39041877    -0.03800
C3266       C  0.50576453  0.66445446  0.41484586    -0.08300
C3267       C  0.97352018  0.66498070  0.42365337     0.05300
C3268       C  0.94670953  0.65743047  0.40668023    -0.03300
Br3269     Br  0.90358485  0.65503461  0.41472387    -0.03000
H3270       H  0.93399038  0.65415441  0.36902802     0.09200
H3271       H  0.52559693  0.66911765  0.42801523     0.07200
Br3272     Br  0.55675241  0.66737821  0.38208682    -0.03400
C3273       C  0.85598177  0.51805240  0.05586100    -0.10100
C3274       C  0.83579807  0.52181836  0.07383604     0.06100
C3275       C  0.81272128  0.53315469  0.06648132    -0.03800
C3276       C  0.81237880  0.54278617  0.04224124    -0.08300
C3277       C  0.83397029  0.54078593  0.02467191     0.05300
C3278       C  0.85266254  0.01094965  0.03731801    -0.03300
Br3279     Br  0.87723131  0.99723455  0.01593930    -0.03000
H3280       H  0.87416525  0.50969169  0.06072408     0.09200
H3281       H  0.79538979  0.55245435  0.03713305     0.07200
Br3282     Br  0.78112176  0.53653823  0.08822493    -0.03400
C3283       C  0.00138618  0.61327779  0.06686132    -0.10100
C3284       C  0.49572723  0.62277697  0.04944366     0.06100
C3285       C  0.95320795  0.61779562  0.05088577    -0.03800
C3286       C  0.93593844  0.60579808  0.07322565    -0.08300
C3287       C  0.95065977  0.59668975  0.09248134     0.05300
C3288       C  0.98400795  0.60092138  0.08913316    -0.03300
Br3289     Br  0.00773148  0.59121462  0.11430393    -0.03000
H3290       H  0.02719119  0.61688524  0.06468636     0.09200
H3291       H  0.91018929  0.60237707  0.07520521     0.07200
Br3292     Br  0.43612715  0.61557419  0.02168437    -0.03400
C3293       C  0.83394427  0.53438130  0.28049568    -0.10100
C3294       C  0.84400182  0.51047418  0.28818848     0.06100
C3295       C  0.84660879  0.48889784  0.27082106    -0.03800
C3296       C  0.84423689  0.49506835  0.24617786    -0.08300
C3297       C  0.83875173  0.52228117  0.23815822     0.05300
C3298       C  0.83118041  0.54041119  0.25578848    -0.03300
Br3299     Br  0.82289655  0.57811720  0.24786739    -0.03000
H3300       H  0.83124113  0.55073752  0.29359245     0.09200
H3301       H  0.84918354  0.48011988  0.23316735     0.07200
Br3302     Br  0.85143296  0.95195001  0.28552475    -0.03400
C3303       C  0.99804809  0.65889810  0.26403758    -0.10100
C3304       C  0.97631503  0.65181268  0.28453363     0.06100
C3305       C  0.93989143  0.62856476  0.28232464    -0.03800
C3306       C  0.92609511  0.61384837  0.26001881    -0.08300
C3307       C  0.94751930  0.62196038  0.23937841     0.05300
C3308       C  0.98396509  0.64430437  0.24158975    -0.03300
Br3309     Br  0.01507010  0.65839818  0.21425802    -0.03000
H3310       H  0.02617716  0.67671322  0.26527274     0.09200
H3311       H  0.89800101  0.59689828  0.25856775     0.07200
Br3312     Br  0.90695385  0.61873034  0.30801029    -0.03400
loop_ 
_geom_bond_atom_site_label_1 
_geom_bond_atom_site_label_2 
_geom_bond_distance 
_geom_bond_site_symmetry_2 
_ccdc_geom_bond_type 
O1           Ni7   1.926       .  S
O1           C22   1.268       .  A
O2          Ni25   1.934       .  S
O2           C11   1.273       .  A
O3           Ni7   1.911       .  S
O3          Ni25   1.904       .  S
O3          Ni19   1.900       .  S
O3           H26   0.967       .  S
C4           O21   1.268       .  A
C4           O13   1.266       .  A
C4          C790   1.496       .  S
O5          Ni24   1.900       .  S
O5           C11   1.264       .  A
O6          Ni24   1.908       .  S
O6            C8   1.273       .  A
Ni7          O10   1.922       .  S
Ni7          O12   1.907       .  S
C8           O18   1.280       .  A
C8          C803   1.480       .  S
O9          Ni25   1.927       .  S
O9           C15   1.281       .  A
O10          C15   1.276       .  A
C11         C343   1.471   1_545  S
O12          C14   1.266       .  A
O13         Ni24   1.918       .  S
C14          O20   1.277       .  A
C14         C813   1.495       .  S
C15         C823   1.480       .  S
H16          O17   0.966       .  S
O17         Ni25   1.956       .  S
O17         Ni19   1.931       .  S
O17         Ni24   1.926       .  S
O18         Ni19   1.948       .  S
Ni19         O23   1.923       .  S
Ni19         O21   1.918       .  S
O20         Ni25   1.946       .  S
C22          O23   1.268       .  A
C22         C373   1.469       .  S
C27         C780   1.480       .  S
C27          N28   1.365       .  A
C27        N1688   1.359       .  A
N28          C29   1.365       .  A
C29         C820   1.477       .  S
C29        N1686   1.351       .  A
N30          C31   1.355       .  A
N30        C1685   1.355       .  A
C31         C770   1.482       .  S
C31          N32   1.355       .  A
N32        C1683   1.357       .  A
C33         C763   1.485       .  S
C33          N34   1.368       .  A
C33         N866   1.358       .  A
N34          C35   1.364       .  A
C35         C810   1.485       .  S
C35          N36   1.353       .  A
N36         C865   1.354       .  A
C37         C753   1.486       .  S
C37          N38   1.359       .  A
C37         N864   1.355       .  A
N38         C861   1.361       .  A
C39         C743   1.473       .  S
C39          N40   1.347       .  A
C39          N44   1.362   1_456  A
N40          C41   1.345   1_556  A
C41         C730   1.481       .  S
C41          N42   1.355       .  A
N42          C43   1.360       .  A
C43         C800   1.478   1_455  S
C43          N44   1.369   1_455  A
C45        C1621   1.493   1_556  S
C45          N50   1.363       .  A
C45         N874   1.358       .  A
N46         C873   1.358   1_556  A
N46         C875   1.355       .  A
C47         C713   1.484       .  S
C47          N48   1.354       .  A
C47         N874   1.356       .  A
N48          C49   1.354       .  A
C49         C720   1.483       .  S
C49          N50   1.366       .  A
O51         Ni57   1.923       .  S
O51          C72   1.267       .  A
O52         Ni75   1.943       .  S
O52          C61   1.278       .  A
O53         Ni57   1.903       .  S
O53         Ni75   1.919       .  S
O53         Ni69   1.911       .  S
O53          H76   0.963       .  S
C54          O71   1.271       .  A
C54          O63   1.273       .  A
C54         C680   1.492       .  S
O55         Ni74   1.918       .  S
O55          C61   1.269       .  A
O56         Ni74   1.904       .  S
O56          C58   1.269       .  A
Ni57         O60   1.902       .  S
Ni57         O62   1.898       .  S
C58          O68   1.275       .  A
C58         C700   1.469       .  S
O59         Ni75   1.938       .  S
O59          C65   1.282       .  A
O60          C65   1.273       .  A
C61         C349   1.479       .  S
O62          C64   1.269       .  A
O63         Ni74   1.928       .  S
C64          O70   1.273       .  A
C64         C673   1.483       .  S
C65         C693   1.473       .  S
H66          O67   0.961       .  S
O67         Ni75   1.928       .  S
O67         Ni69   1.919       .  S
O67         Ni74   1.914       .  S
O68         Ni69   1.932       .  S
Ni69         O73   1.934       .  S
Ni69         O71   1.911       .  S
O70         Ni75   1.926       .  S
C72          O73   1.270       .  A
C72         C355   1.476       .  S
O77         Ni83   1.920       .  S
O77          C98   1.270       .  A
O78        Ni101   1.939       .  S
O78          C87   1.274       .  A
O79         Ni83   1.917       .  S
O79        Ni101   1.923       .  S
O79         Ni95   1.942       .  S
O79         H102   0.966       .  S
C80          O97   1.280       .  A
C80          O89   1.273       .  A
C80         C723   1.473       .  S
O81        Ni100   1.921       .  S
O81          C87   1.268       .  A
O82        Ni100   1.899       .  S
O82          C84   1.270       .  A
Ni83         O86   1.926       .  S
Ni83         O88   1.906       .  S
C84          O94   1.278       .  A
C84         C660   1.485       .  S
O85        Ni101   1.909       .  S
O85          C91   1.269       .  A
O86          C91   1.266       .  A
C87         C363   1.480       .  S
O88          C90   1.276       .  A
O89        Ni100   1.907       .  S
C90          O96   1.281       .  A
C90         C650   1.482       .  S
C91         C643   1.490       .  S
H92          O93   0.966       .  S
O93        Ni101   1.904       .  S
O93         Ni95   1.913       .  S
O93        Ni100   1.899       .  S
O94         Ni95   1.935       .  S
Ni95         O99   1.948       .  S
Ni95         O97   1.931       .  S
O96        Ni101   1.952       .  S
C98          O99   1.279       .  A
C98         C369   1.490       .  S
C103        C640   1.493       .  S
C103        N104   1.355       .  A
C103        N108   1.363       .  A
N104        C105   1.359       .  A
C105        C630   1.483       .  S
C105        N106   1.351       .  A
N106        C107   1.353       .  A
C107        C690   1.479       .  S
C107        N108   1.363       .  A
C109        C623   1.494       .  S
C109        N114   1.356       .  A
C109        N938   1.361   1_545  A
N110        C111   1.365       .  A
N110        C937   1.360       .  A
C111        C653   1.469       .  S
C111        N940   1.358       .  A
N112        C113   1.356       .  A
N112        C939   1.358   1_545  A
C113        C610   1.486       .  S
C113        N114   1.351       .  A
C115        C600   1.491       .  S
C115        N116   1.360       .  A
C115        N120   1.368   1_554  A
N116        C117   1.355       .  A
C117        C590   1.483       .  S
C117        N118   1.350   1_554  A
N118        C119   1.349       .  A
C119        C663   1.472       .  S
C119        N120   1.363       .  A
O121       Ni127   1.929       .  S
O121        C142   1.272       .  A
O122       Ni145   1.926       .  S
O122        C131   1.270       .  A
O123       Ni127   1.896       .  S
O123       Ni139   1.921       .  S
O123      Ni1801   1.906   1_455  S
O123        H146   0.966       .  S
C124        O141   1.283   1_655  A
C124       O1789   1.277       .  A
C124        C560   1.496   1_655  S
O125       Ni144   1.922       .  S
O125        C131   1.269       .  A
O126       Ni144   1.912       .  S
O126        C128   1.267       .  A
Ni127       O130   1.926       .  S
Ni127       O132   1.905       .  S
C128       O1794   1.274       .  A
C128        C783   1.495       .  S
O129       Ni145   1.910       .  S
O129        C135   1.275       .  A
O130       C1791   1.279       .  A
C131        C353   1.467       .  S
O132        C134   1.269       .  A
O133       Ni144   1.923       .  S
O133       C1780   1.278       .  A
C134       O1796   1.281       .  A
C134        C583   1.478       .  S
C135       O1786   1.280       .  A
C135        C570   1.476       .  S
H136        O137   0.966       .  S
O137       Ni145   1.911       .  S
O137       Ni144   1.903       .  S
O137      Ni1795   1.900       .  S
O138       Ni139   1.924       .  S
O138       C1784   1.271   1_455  A
Ni139       O143   1.926       .  S
Ni139       O141   1.928       .  S
Ni139      O1793   1.906   1_455  S
O140       Ni145   1.949       .  S
O140       C1790   1.282       .  A
C142        O143   1.272       .  A
C142        C359   1.471       .  S
Ni145      O1779   1.904       .  S
O147       Ni153   1.928       .  S
O147        C168   1.273       .  A
O148       Ni171   1.924       .  S
O148        C157   1.268       .  A
O149       Ni153   1.912       .  S
O149       Ni171   1.913       .  S
O149       Ni165   1.924       .  S
O149        H172   0.966       .  S
C150        O167   1.278       .  A
C150        O159   1.275       .  A
C150        C533   1.480       .  S
O151       Ni170   1.925       .  S
O151        C157   1.268       .  A
O152       Ni170   1.900       .  S
O152        C154   1.269       .  A
Ni153       O156   1.938       .  S
Ni153       O158   1.906       .  S
C154        O164   1.277       .  A
C154        C603   1.492       .  S
O155       Ni171   1.898       .  S
O155        C161   1.266       .  A
O156        C161   1.276       .  A
C157        C345   1.471       .  S
O158        C160   1.270       .  A
O159       Ni170   1.907       .  S
C160        O166   1.278       .  A
C160        C550   1.479       .  S
C161        C540   1.489       .  S
H162        O163   0.966       .  S
O163       Ni171   1.904       .  S
O163       Ni165   1.909       .  S
O163       Ni170   1.898       .  S
O164       Ni165   1.940       .  S
Ni165       O169   1.925       .  S
Ni165       O167   1.927       .  S
O166       Ni171   1.952       .  S
C168        O169   1.274       .  A
C168        C375   1.472       .  S
C173        C543   1.489       .  S
C173        N174   1.362       .  A
C173        N178   1.355       .  A
N174        C175   1.362       .  A
C175        C750   1.488       .  S
C175        N176   1.354       .  A
N176        C177   1.352       .  A
C177        C703   1.466       .  S
C177        N178   1.355       .  A
C179        C563   1.491       .  S
C179        N184   1.355       .  A
C179       N1836   1.363   1_455  A
N180       C1835   1.364       .  A
N180       C1837   1.363       .  A
C181       C2209   1.472   1_455  S
C181        N182   1.353       .  A
C181       N1836   1.362   1_455  A
N182        C183   1.350       .  A
C183        C520   1.480       .  S
C183        N184   1.355       .  A
O185       Ni191   1.923       .  S
O185        C206   1.270       .  A
O186       Ni209   1.934       .  S
O186        C195   1.275       .  A
O187       Ni191   1.898       .  S
O187       Ni203   1.921       .  S
O187      Ni1037   1.915   1_545  S
O187        H210   0.966       .  S
C188        O205   1.280   1_565  A
C188       O1025   1.282       .  A
C188        C620   1.492       .  S
O189       Ni208   1.928       .  S
O189        C195   1.270       .  A
O190       Ni208   1.914       .  S
O190        C192   1.266       .  A
Ni191       O194   1.914       .  S
Ni191       O196   1.907       .  S
C192       O1030   1.270       .  A
C192        C503   1.478       .  S
O193       Ni209   1.927       .  S
O193        C199   1.281       .  A
O194       C1027   1.274       .  A
C195        C357   1.475       .  S
O196        C198   1.273       .  A
O197       Ni208   1.939       .  S
O197       C1016   1.282       .  A
C198       O1032   1.283   1_545  A
C198        C760   1.492       .  S
C199       O1022   1.276       .  A
C199        C513   1.474       .  S
H200        O201   0.963       .  S
O201       Ni209   1.911       .  S
O201       Ni208   1.906       .  S
O201      Ni1031   1.900       .  S
O202       Ni203   1.913       .  S
O202       C1020   1.266   1_545  A
Ni203       O207   1.926       .  S
Ni203       O205   1.915       .  S
Ni203      O1029   1.899   1_545  S
O204       Ni209   1.953       .  S
O204       C1026   1.282       .  A
C206        O207   1.268       .  A
C206        C351   1.470       .  S
Ni209      O1015   1.909       .  S
O211       Ni217   1.930       .  S
O211        C232   1.271       .  A
O212       Ni235   1.957       .  S
O212        C221   1.277       .  A
O213       Ni217   1.901       .  S
O213       Ni235   1.908       .  S
O213       Ni229   1.907       .  S
O213        H236   0.966       .  S
C214        O231   1.280       .  A
C214        O223   1.276       .  A
C214        C480   1.475       .  S
O215       Ni234   1.917       .  S
O215        C221   1.267       .  A
O216       Ni234   1.910       .  S
O216        C218   1.270       .  A
Ni217       O220   1.917       .  S
Ni217       O222   1.921       .  S
C218        O228   1.272       .  A
C218        C470   1.471       .  S
O219       Ni235   1.946       .  S
O219        C225   1.292       .  A
O220        C225   1.276       .  A
C221        C371   1.489       .  S
O222        C224   1.270       .  A
O223       Ni234   1.915       .  S
C224        O230   1.268       .  A
C224        C490   1.483       .  S
C225        C740   1.497       .  S
H226        O227   0.966       .  S
O227       Ni235   1.932       .  S
O227       Ni229   1.912       .  S
O227       Ni234   1.901       .  S
O228       Ni229   1.921       .  S
Ni229       O233   1.934       .  S
Ni229       O231   1.928       .  S
O230       Ni235   1.910       .  S
C232        O233   1.271       .  A
C232        C365   1.482       .  S
C237        C483   1.469       .  S
C237        N238   1.358       .  A
C237        N242   1.352       .  A
N238        C239   1.361       .  A
C239        C670   1.471       .  S
C239        N240   1.357       .  A
N240        C241   1.355       .  A
C241        C463   1.484       .  S
C241        N242   1.357       .  A
C243        C573   1.484       .  S
C243        N244   1.359       .  A
C243       N1904   1.356       .  A
N244        C245   1.360       .  A
C245        C613   1.486       .  S
C245        N246   1.355       .  A
N246        C247   1.355       .  A
C247       C2129   1.466       .  S
C247       N1904   1.356       .  A
N248       C1899   1.361       .  A
N248       C1903   1.362       .  A
O249       Ni255   1.937       .  S
O249        C270   1.274       .  A
O250       Ni273   1.932       .  S
O250        C259   1.272       .  A
O251       Ni255   1.895       .  S
O251       Ni273   1.899       .  S
O251       Ni267   1.917       .  S
O251        H274   0.966       .  S
C252        O269   1.284       .  A
C252        O261   1.276       .  A
C252        C453   1.476       .  S
O253       Ni272   1.915       .  S
O253        C259   1.267       .  A
O254       Ni272   1.907       .  S
O254        C256   1.266       .  A
Ni255       O258   1.929       .  S
Ni255       O260   1.915       .  S
C256        O266   1.271       .  A
C256        C440   1.464       .  S
O257       Ni273   1.917       .  S
O257        C263   1.282       .  A
O258        C263   1.277       .  A
C259        C377   1.464       .  S
O260        C262   1.272       .  A
O261       Ni272   1.905       .  S
C262        O268   1.273       .  A
C262        C433   1.486       .  S
C263        C423   1.493       .  S
H264        O265   0.966       .  S
O265       Ni273   1.918       .  S
O265       Ni267   1.897       .  S
O265       Ni272   1.888       .  S
O266       Ni267   1.924       .  S
Ni267       O271   1.922       .  S
Ni267       O269   1.946       .  S
O268       Ni273   1.928       .  S
C270        O271   1.272       .  A
C270        C347   1.472       .  S
C275        C450   1.481       .  S
C275        N276   1.356       .  A
C275        N280   1.365       .  A
N276        C277   1.353       .  A
C277        C773   1.483       .  S
C277        N278   1.352       .  A
N278        C279   1.353       .  A
C279        C683   1.476       .  S
C279        N280   1.365       .  A
C281        C510   1.476       .  S
C281        N282   1.358       .  A
C281       N1114   1.359       .  A
N282        C283   1.358       .  A
C283        C523   1.474       .  S
C283        N284   1.350       .  A
N284       C1113   1.349       .  A
C285        C443   1.495   1_565  S
C285        N286   1.366   1_565  A
C285       N1112   1.358       .  A
N286       C1109   1.364   1_545  A
C287        C493   1.492       .  S
C287        N288   1.364       .  A
C287        N292   1.367       .  A
N288        C289   1.360       .  A
C289        C593   1.487       .  S
C289        N290   1.353   1_556  A
N290        C291   1.350       .  A
C291        C430   1.477       .  S
C291        N292   1.362   1_554  A
O293       Ni299   1.913       .  S
O293        C314   1.266       .  A
O294       Ni317   1.935       .  S
O294        C303   1.274       .  A
O295       Ni299   1.914       .  S
O295       Ni317   1.925       .  S
O295       Ni311   1.921       .  S
O295        H318   0.966       .  S
C296        O313   1.268       .  A
C296        O305   1.271       .  A
C296        C413   1.491       .  S
O297       Ni316   1.921       .  S
O297        C303   1.268       .  A
O298       Ni316   1.896       .  S
O298        C300   1.270       .  A
Ni299       O302   1.918       .  S
Ni299       O304   1.901       .  S
C300        O310   1.282       .  A
C300        C400   1.487       .  S
O301       Ni317   1.925       .  S
O301        C307   1.275       .  A
O302        C307   1.270       .  A
C303        C361   1.482       .  S
O304        C306   1.266       .  A
O305       Ni316   1.924       .  S
C306        O312   1.283       .  A
C306        C390   1.492       .  S
C307        C380   1.491       .  S
H308        O309   0.966       .  S
O309       Ni317   1.936       .  S
O309       Ni311   1.928       .  S
O309       Ni316   1.928       .  S
O310       Ni311   1.951       .  S
Ni311       O315   1.937       .  S
Ni311       O313   1.908       .  S
O312       Ni317   1.968       .  S
C314        O315   1.274       .  A
C314        C367   1.478       .  S
C319        C580   1.481       .  S
C319        N320   1.373       .  A
C319       N1980   1.356       .  A
N320        C321   1.370       .  A
C321        C393   1.477       .  S
C321        N322   1.349       .  A
N322       C1979   1.346       .  A
C323        C633   1.480       .  S
C323        N324   1.356       .  A
C323       N1978   1.345       .  A
N324       C1975   1.359       .  A
C325        C500   1.480       .  S
C325        N330   1.362       .  A
C325       N1154   1.355       .  A
N326        C327   1.359   1_565  A
N326       C1153   1.355       .  A
C327        C460   1.486       .  S
C327       N1156   1.357   1_545  A
N328        C329   1.356       .  A
N328       C1155   1.355       .  A
C329        C383   1.487       .  S
C329        N330   1.361       .  A
C331       C2066   1.483       .  S
C331        N332   1.360   1_556  A
C331        N336   1.354       .  A
N332        C333   1.361       .  A
C333        C530   1.469       .  S
C333        N334   1.356       .  A
N334        C335   1.354       .  A
C335        C733   1.485       .  S
C335        N336   1.356   1_554  A
C337        C420   1.481   1_556  S
C337        N338   1.355       .  A
C337        N342   1.363       .  A
N338        C339   1.355       .  A
C339        C710   1.487       .  S
C339        N340   1.355       .  A
N340        C341   1.358       .  A
C341        C403   1.485       .  S
C341        N342   1.364       .  A
C343       N1172   1.363       .  A
C343       N2004   1.361   1_565  A
N344        C345   1.360       .  A
N344       C1171   1.362       .  A
C345       N2002   1.359       .  A
N346       C2001   1.359       .  A
N346       C1175   1.360   1_655  A
C347        N348   1.361   1_455  A
C347       N1174   1.360   1_545  A
N348       C1999   1.362   1_545  A
C349        N350   1.365       .  A
C349        N354   1.366       .  A
N350        C351   1.361       .  A
C351        N352   1.351       .  A
N352        C353   1.356       .  A
C353        N354   1.366       .  A
C355        N356   1.365       .  A
C355        N360   1.362       .  A
N356        C357   1.363       .  A
C357        N358   1.360       .  A
N358        C359   1.358       .  A
C359        N360   1.360       .  A
C361       N2018   1.361   1_455  A
C361       N1194   1.367       .  A
N362        C363   1.361       .  A
N362       C2017   1.363       .  A
C363       N1192   1.363       .  A
N364       C1191   1.368   1_545  A
N364       C2021   1.368       .  A
C365        N366   1.360   1_545  A
C365       N2020   1.364   1_455  A
N366       C1189   1.361       .  A
C367        N368   1.365       .  A
C367        N372   1.365       .  A
N368        C369   1.362       .  A
C369        N370   1.367       .  A
N370        C371   1.366       .  A
C371        N372   1.363       .  A
C373        N374   1.363       .  A
C373        N378   1.359       .  A
N374        C375   1.362       .  A
C375        N376   1.358       .  A
N376        C377   1.359       .  A
C377        N378   1.359       .  A
C379        C380   1.411       .  A
C379        C384   1.396       .  A
C379        H386   1.082       .  S
C380        C381   1.408       .  A
C381        C382   1.405       .  A
C381       Br388   1.916       .  S
C382        C383   1.412       .  A
C382        H387   1.083       .  S
C383        C384   1.410       .  A
C384       Br385   1.923       .  S
C389        C390   1.403       .  A
C389        C394   1.404       .  A
C389        H396   1.083       .  S
C390        C391   1.423       .  A
C391        C392   1.402       .  A
C391       Br398   1.923       .  S
C392        C393   1.397       .  A
C392        H397   1.084       .  S
C393        C394   1.413       .  A
C394      Br2051   1.917   1_455  S
Br395      C2050   1.918       .  S
C399        C400   1.412       .  A
C399       C1232   1.400       .  A
C399        H406   1.083       .  S
C400        C401   1.410       .  A
C401        C402   1.400       .  A
C401       Br408   1.918       .  S
C402       C1231   1.406       .  A
C402        H407   1.083       .  S
C403        C404   1.409   1_545  A
C403       C1230   1.409   1_545  A
C404       C1227   1.402       .  A
C404       Br405   1.921       .  S
C409        C410   1.410       .  A
C409        C414   1.400       .  A
C409        H416   1.084       .  S
C410       C1987   1.492       .  S
C410        C411   1.412       .  A
C411        C412   1.402       .  A
C411      Br2074   1.921       .  S
C412        C413   1.410       .  A
C412        H417   1.083       .  S
C413        C414   1.412       .  A
C414       Br415   1.923       .  S
Br418      C2067   1.921       .  S
C419        C420   1.398       .  A
C419        C424   1.401       .  A
C419        H426   1.084       .  S
C420        C421   1.414       .  A
C421        C422   1.397       .  A
C421       Br428   1.921       .  S
C422        C423   1.405       .  A
C422        H427   1.083       .  S
C423        C424   1.425       .  A
C424       Br425   1.925   1_545  S
C429        C430   1.404       .  A
C429        C434   1.396       .  A
C429        H436   1.084       .  S
C430        C431   1.406       .  A
C431        C432   1.406       .  A
C431       Br438   1.919       .  S
C432        C433   1.412       .  A
C432        H437   1.083       .  S
C433        C434   1.412       .  A
C434       Br435   1.922       .  S
C439        C440   1.401       .  A
C439        C444   1.400       .  A
C439        H446   1.084       .  S
C440        C441   1.397       .  A
C441        C442   1.394       .  A
C441      Br1276   1.919       .  S
C442        C443   1.416       .  A
C442       H1275   1.082   1_545  S
C443        C444   1.418       .  A
C444       Br445   1.919       .  S
H447       C1270   1.084       .  S
Br448      C1269   1.921       .  S
C449        C450   1.405       .  A
C449        C454   1.394       .  A
C449        H456   1.084       .  S
C450        C451   1.413       .  A
C451        C452   1.404       .  A
C451       Br458   1.919       .  S
C452        C453   1.407       .  A
C452        H457   1.083       .  S
C453        C454   1.408       .  A
C454       Br455   1.921       .  S
C459        C460   1.410       .  A
C459        C464   1.397       .  A
C459        H466   1.083       .  S
C460        C461   1.418       .  A
C461        C462   1.395       .  A
C461       Br468   1.920       .  S
C462        C463   1.403       .  A
C462        H467   1.084       .  S
C463        C464   1.409       .  A
C464       Br465   1.920       .  S
C469        C470   1.402       .  A
C469       C2130   1.397       .  A
C469        H476   1.084       .  S
C470        C471   1.414       .  A
C471        C472   1.397       .  A
C471       Br478   1.919       .  S
C472        C473   1.399       .  A
C472        H477   1.084       .  S
C473       C1903   1.467   1_455  S
C473       C2130   1.408       .  A
C474       C2125   1.398       .  A
C474       C2129   1.406       .  A
C474       Br475   1.917       .  S
C479        C480   1.407       .  A
C479        C484   1.396       .  A
C479        H486   1.084       .  S
C480        C481   1.407       .  A
C481        C482   1.401       .  A
C481       Br488   1.915       .  S
C482        C483   1.406       .  A
C482        H487   1.084       .  S
C483        C484   1.402       .  A
C484       Br485   1.917       .  S
C489        C490   1.405       .  A
C489        C494   1.400       .  A
C489        H496   1.084       .  S
C490        C491   1.412       .  A
C491        C492   1.402       .  A
C491       Br498   1.916       .  S
C492        C493   1.406       .  A
C492        H497   1.083       .  S
C493        C494   1.415       .  A
C494       Br495   1.919       .  S
C499        C500   1.410       .  A
C499        C504   1.406       .  A
C499        H506   1.083       .  S
C500        C501   1.409       .  A
C501        C502   1.393       .  A
C501       Br508   1.921       .  S
C502        C503   1.404       .  A
C502        H507   1.083       .  S
C503        C504   1.408       .  A
C504       Br505   1.916       .  S
C509        C510   1.408       .  A
C509        C514   1.399       .  A
C509       H1344   1.084       .  S
C510        C511   1.410       .  A
C511        C512   1.394       .  A
C511       Br518   1.921       .  S
C512        C513   1.405       .  A
C512        H517   1.084       .  S
C513        C514   1.405       .  A
C514      Br1343   1.916       .  S
Br515      C1342   1.914       .  S
H516       C1337   1.084       .  S
C519        C520   1.407       .  A
C519        C524   1.390       .  A
C519        H526   1.077       .  S
C520        C521   1.418       .  A
C521        C522   1.394       .  A
C521       Br528   1.926       .  S
C522        C523   1.406       .  A
C522        H527   1.083       .  S
C523        C524   1.401       .  A
C524       Br525   1.919       .  S
C529        C530   1.402       .  A
C529        C534   1.401       .  A
C529       H2192   1.084       .  S
C530        C531   1.406       .  A
C531        C532   1.393       .  A
C531       Br538   1.921       .  S
C532        C533   1.406       .  A
C532        H537   1.084       .  S
C533        C534   1.416       .  A
C534       Br535   1.922       .  S
H536       C2185   1.084       .  S
C539        C540   1.407       .  A
C539        C544   1.398       .  A
C539        H546   1.083       .  S
C540        C541   1.415       .  A
C541        C542   1.397       .  A
C541       Br548   1.922       .  S
C542        C543   1.406       .  A
C542        H547   1.083       .  S
C543        C544   1.417       .  A
C544       Br545   1.924       .  S
C549        C550   1.406       .  A
C549       C2210   1.400       .  A
C549       H2212   1.084       .  S
C550        C551   1.410       .  A
C551        C552   1.401       .  A
C551       Br558   1.919       .  S
C552        C553   1.404       .  A
C552        H557   1.084       .  S
C553       C1837   1.471       .  S
C553       C2210   1.408       .  A
C554       C2205   1.397       .  A
C554       C2209   1.409       .  A
C554       Br555   1.921       .  S
H556       C2205   1.084       .  S
C559        C560   1.415   1_655  A
C559        C564   1.397       .  A
C559        H566   1.082       .  S
C560        C561   1.411       .  A
C561        C562   1.401       .  A
C561       Br568   1.919       .  S
C562        C563   1.412       .  A
C562        H567   1.083       .  S
C563        C564   1.409   1_455  A
C564       Br565   1.923       .  S
C569        C574   1.403       .  A
C569       C2226   1.408   1_455  A
C569        H576   1.083       .  S
C570        C571   1.408       .  A
C570       C2225   1.404       .  A
C571        C572   1.397       .  A
C571       Br578   1.920       .  S
C572        C573   1.408       .  A
C572        H577   1.083       .  S
C573       C2230   1.415       .  A
C574       C2229   1.416   1_455  A
C574       Br575   1.921       .  S
C579        C580   1.407       .  A
C579        C584   1.401       .  A
C579        H586   1.084       .  S
C580       C2237   1.410       .  A
C581        C582   1.407       .  A
C581       C2236   1.410       .  A
C581       Br588   1.918       .  S
C582       C2239   1.407       .  A
C582        H587   1.084       .  S
C583        C584   1.407       .  A
C583       C2238   1.408       .  A
C584       Br585   1.918       .  S
C589        C590   1.407   1_556  A
C589        C594   1.393       .  A
C589        H596   1.084       .  S
C590        C591   1.409       .  A
C591        C592   1.395       .  A
C591       Br598   1.920       .  S
C592        C593   1.410   1_554  A
C592        H597   1.083       .  S
C593        C594   1.412       .  A
C594       Br595   1.915       .  S
C599        C600   1.412       .  A
C599        C604   1.403       .  A
C599        H606   1.083       .  S
C600        C601   1.409       .  A
C601        C602   1.398       .  A
C601       Br608   1.919       .  S
C602        C603   1.411       .  A
C602        H607   1.083       .  S
C603        C604   1.411       .  A
C604       Br605   1.921       .  S
C609        C610   1.405       .  A
C609        C614   1.398       .  A
C609        H616   1.083       .  S
C610        C611   1.413       .  A
C611        C612   1.396       .  A
C611       Br618   1.920       .  S
C612        C613   1.405       .  A
C612        H617   1.084       .  S
C613        C614   1.415       .  A
C614       Br615   1.922       .  S
C619        C624   1.405       .  A
C619       C1448   1.414       .  A
C619        H626   1.083       .  S
C620        C621   1.413   1_565  A
C620       C1447   1.413       .  A
C621        C622   1.391       .  A
C621       Br628   1.922       .  S
C622        C623   1.408       .  A
C622        H627   1.081       .  S
C623       C1452   1.413   1_545  A
C624       C1451   1.411       .  A
C624       Br625   1.920       .  S
C629        C630   1.398       .  A
C629        C634   1.391       .  A
C629        H636   1.081       .  S
C630        C631   1.411       .  A
C631        C632   1.395       .  A
C631       Br638   1.919       .  S
C632        C633   1.406       .  A
C632        H637   1.082       .  S
C633        C634   1.419       .  A
C634       Br635   1.927       .  S
C639        C640   1.403       .  A
C639        C644   1.401       .  A
C639        H646   1.083       .  S
C640        C641   1.419       .  A
C641        C642   1.395       .  A
C641       Br648   1.913       .  S
C642        C643   1.400       .  A
C642        H647   1.084       .  S
C643        C644   1.422       .  A
C644       Br645   1.924       .  S
C649        C650   1.407       .  A
C649        C654   1.399       .  A
C649        H656   1.083       .  S
C650        C651   1.417       .  A
C651        C652   1.397       .  A
C651       Br658   1.922       .  S
C652        C653   1.399       .  A
C652        H657   1.084       .  S
C653        C654   1.406       .  A
C654       Br655   1.919       .  S
C659        C660   1.413       .  A
C659        C664   1.399       .  A
C659        H666   1.083       .  S
C660        C661   1.410       .  A
C661        C662   1.398       .  A
C661       Br668   1.921       .  S
C662        C663   1.407       .  A
C662        H667   1.084       .  S
C663        C664   1.403       .  A
C664       Br665   1.916       .  S
C669        C670   1.405       .  A
C669        C674   1.400       .  A
C669        H676   1.084       .  S
C670        C671   1.403       .  A
C671        C672   1.394       .  A
C671       Br678   1.918       .  S
C672        C673   1.410       .  A
C672        H677   1.083       .  S
C673        C674   1.414       .  A
C674       Br675   1.922       .  S
C679        C680   1.416       .  A
C679        C684   1.399       .  A
C679        H686   1.083       .  S
C680        C681   1.414       .  A
C681        C682   1.398       .  A
C681       Br688   1.923       .  S
C682        C683   1.406       .  A
C682        H687   1.084       .  S
C683        C684   1.402       .  A
C684       Br685   1.919       .  S
C689        C690   1.413       .  A
C689        C694   1.401       .  A
C689        H696   1.083       .  S
C690        C691   1.407       .  A
C691        C692   1.395       .  A
C691       Br698   1.921       .  S
C692        C693   1.407       .  A
C692        H697   1.084       .  S
C693        C694   1.403       .  A
C694       Br695   1.918       .  S
C699        C700   1.404       .  A
C699        C704   1.390       .  A
C699        H706   1.084       .  S
C700        C701   1.409       .  A
C701        C702   1.400       .  A
C701       Br708   1.919       .  S
C702        C703   1.404       .  A
C702        H707   1.084       .  S
C703        C704   1.408       .  A
C704       Br705   1.922       .  S
C709        C710   1.408       .  A
C709        C714   1.397       .  A
C709        H716   1.083   1_556  S
C710        C711   1.414       .  A
C711        C712   1.396       .  A
C711       Br718   1.922       .  S
C712       C1541   1.406       .  A
C712       H1545   1.083       .  S
C713       C1540   1.407       .  A
C713       C1542   1.409       .  A
C714       C1541   1.409       .  A
C714       Br715   1.921   1_556  S
H717       C1540   1.083       .  S
C719        C720   1.405       .  A
C719        C724   1.400       .  A
C719        H726   1.083       .  S
C720        C721   1.416       .  A
C721        C722   1.397       .  A
C721       Br728   1.923       .  S
C722        C723   1.402       .  A
C722        H727   1.084       .  S
C723        C724   1.411       .  A
C724       Br725   1.920       .  S
C729        C730   1.406       .  A
C729       C2390   1.397       .  A
C729       H2392   1.083       .  S
C730        C731   1.420   1_554  A
C731        C732   1.394       .  A
C731       Br738   1.927       .  S
C732       C2389   1.403   1_556  A
C732        H737   1.084       .  S
C733        C734   1.410       .  A
C733       C2388   1.404   1_554  A
C734       C2385   1.396       .  A
C734       Br735   1.920       .  S
H736       C2385   1.083       .  S
C739        C740   1.403       .  A
C739        C744   1.398       .  A
C739        H746   1.083       .  S
C740        C741   1.430       .  A
C741        C742   1.402   1_455  A
C741       Br748   1.925   1_455  S
C742        C743   1.394   1_655  A
C742        H747   1.084       .  S
C743        C744   1.411       .  A
C744       Br745   1.920       .  S
C749        C750   1.406       .  A
C749        C754   1.398       .  A
C749        H756   1.083       .  S
C750        C751   1.417       .  A
C751        C752   1.398       .  A
C751       Br758   1.922       .  S
C752        C753   1.404       .  A
C752        H757   1.083       .  S
C753        C754   1.411       .  A
C754      Br1583   1.921       .  S
Br755      C1582   1.922       .  S
C759        C760   1.413       .  A
C759        C764   1.399       .  A
C759        H766   1.083       .  S
C760        C761   1.410       .  A
C761        C762   1.405       .  A
C761      Br1596   1.918   1_545  S
C762        C763   1.410       .  A
C762        H767   1.084   1_545  S
C763        C764   1.405       .  A
C764       Br765   1.920       .  S
Br768      C1589   1.919       .  S
C769        C770   1.411       .  A
C769        C774   1.395       .  A
C769        H776   1.083       .  S
C770        C771   1.418       .  A
C771        C772   1.398       .  A
C771       Br778   1.919       .  S
C772        C773   1.404       .  A
C772        H777   1.084       .  S
C773        C774   1.405       .  A
C774       Br775   1.918       .  S
C779        C780   1.400       .  A
C779        C784   1.405       .  A
C779        H786   1.084       .  S
C780       C2437   1.409       .  A
C781        C782   1.399       .  A
C781       C2436   1.408   1_455  A
C781       Br788   1.920       .  S
C782       C2439   1.408   1_455  A
C782        H787   1.084       .  S
C783        C784   1.422       .  A
C783       C2438   1.407       .  A
C784       Br785   1.921       .  S
C789        C790   1.414       .  A
C789       C1622   1.402       .  A
C789        H796   1.083   1_545  S
C790        C791   1.412       .  A
C791        C792   1.399       .  A
C791       Br798   1.922       .  S
C792        C793   1.409       .  A
C792        H797   1.082       .  S
C793        C873   1.493       .  S
C793       C1622   1.412       .  A
C794       C1617   1.404       .  A
C794       C1621   1.410       .  A
C794       Br795   1.921       .  S
C799        C804   1.401       .  A
C799       C2456   1.409       .  A
C799        H806   1.084       .  S
C800       C2455   1.408   1_655  A
C800       C2457   1.410       .  A
C801        C802   1.400       .  A
C801       C2456   1.410       .  A
C801      Br2464   1.920       .  S
C802        C803   1.408       .  A
C802        H807   1.084       .  S
C803        C804   1.408       .  A
C804       Br805   1.919       .  S
Br808      C2457   1.921       .  S
C809        C810   1.399       .  A
C809        C814   1.405       .  A
C809        H816   1.083       .  S
C810        C811   1.413   1_545  A
C811        C812   1.401       .  A
C811      Br1646   1.922       .  S
C812        C813   1.405   1_565  A
C812        H817   1.084       .  S
C813        C814   1.424       .  A
C814       Br815   1.922       .  S
Br818      C1639   1.923       .  S
C819        C820   1.412       .  A
C819        C824   1.400       .  A
C819        H826   1.084       .  S
C820        C821   1.404       .  A
C821        C822   1.396       .  A
C821       Br828   1.919       .  S
C822        C823   1.410       .  A
C822        H827   1.080       .  S
C823        C824   1.404       .  A
C824       Br825   1.918       .  S
O829       Ni835   1.931       .  S
O829        C850   1.271       .  A
O830       Ni853   1.933       .  S
O830        C839   1.273       .  A
O831       Ni835   1.901       .  S
O831       Ni853   1.893       .  S
O831       Ni847   1.897       .  S
O831        H854   0.967       .  S
C832        O849   1.268       .  A
C832        O841   1.267       .  A
C832       C1618   1.501       .  S
O833       Ni852   1.908       .  S
O833        C839   1.267       .  A
O834       Ni852   1.903       .  S
O834        C836   1.274       .  A
Ni835       O838   1.917       .  S
Ni835       O840   1.916       .  S
C836        O846   1.286       .  A
C836       C1631   1.477       .  S
O837       Ni853   1.942       .  S
O837        C843   1.287       .  A
O838        C843   1.278       .  A
C839       C1171   1.473       .  S
O840        C842   1.270       .  A
O841       Ni852   1.927       .  S
C842        O848   1.276       .  A
C842       C1641   1.503       .  S
C843       C1651   1.482       .  S
H844        O845   0.966       .  S
O845       Ni853   1.966       .  S
O845       Ni847   1.929       .  S
O845       Ni852   1.921       .  S
O846       Ni847   1.958       .  S
Ni847       O851   1.932       .  S
Ni847       O849   1.921       .  S
O848       Ni853   1.938       .  S
C850        O851   1.273       .  A
C850       C1201   1.479       .  S
C855       C1608   1.479       .  S
C855        N856   1.365       .  A
C855       N2516   1.355       .  A
N856        C857   1.367       .  A
C857       C1648   1.486       .  S
C857       N2514   1.355       .  A
N858       C2513   1.355   1_455  A
N858        C859   1.354       .  A
C859       C1598   1.479       .  S
C859        N860   1.350       .  A
N860       C2511   1.354   1_455  A
C861       C1591   1.498       .  S
C861        N862   1.372       .  A
N862        C863   1.367       .  A
C863       C1638   1.496       .  S
C863        N864   1.354       .  A
C865       C1581   1.481       .  S
C865        N866   1.357       .  A
C867       C1571   1.481       .  S
C867        N868   1.350       .  A
C867        N872   1.363   1_456  A
N868        C869   1.347   1_556  A
C869       C1558   1.484       .  S
C869        N870   1.354       .  A
N870        C871   1.359       .  A
C871       C1628   1.475   1_455  S
C871        N872   1.370   1_455  A
C873        N878   1.363   1_554  A
C875       C1541   1.482       .  S
C875        N876   1.352       .  A
N876        C877   1.353       .  A
C877       C1548   1.472       .  S
C877        N878   1.364       .  A
O879       Ni885   1.915       .  S
O879        C900   1.264       .  A
O880       Ni903   1.938       .  S
O880        C889   1.275       .  A
O881       Ni885   1.914       .  S
O881       Ni903   1.926       .  S
O881       Ni897   1.915       .  S
O881        H904   0.965       .  S
C882        O899   1.270       .  A
C882        O891   1.273       .  A
C882       C1508   1.485       .  S
O883       Ni902   1.929       .  S
O883        C889   1.270       .  A
O884       Ni902   1.903       .  S
O884        C886   1.268       .  A
Ni885       O888   1.905       .  S
Ni885       O890   1.893       .  S
C886        O896   1.279       .  A
C886       C1528   1.488       .  S
O887       Ni903   1.922       .  S
O887        C893   1.275       .  A
O888        C893   1.271       .  A
C889       C1177   1.483       .  S
O890        C892   1.266       .  A
O891       Ni902   1.927       .  S
C892        O898   1.275       .  A
C892       C1501   1.469       .  S
C893       C1521   1.468       .  S
H894        O895   0.956       .  S
O895       Ni903   1.922       .  S
O895       Ni897   1.924       .  S
O895       Ni902   1.918       .  S
O896       Ni897   1.946       .  S
Ni897       O901   1.942       .  S
Ni897       O899   1.904       .  S
O898       Ni903   1.935       .  S
C900        O901   1.273       .  A
C900       C1183   1.479       .  S
O905       Ni911   1.916       .  S
O905        C926   1.269       .  A
O906       Ni929   1.944       .  S
O906        C915   1.273       .  A
O907       Ni911   1.919       .  S
O907       Ni929   1.927       .  S
O907       Ni923   1.946       .  S
O907        H930   0.966       .  S
C908        O925   1.282       .  A
C908        O917   1.274       .  A
C908       C1551   1.478       .  S
O909       Ni928   1.912       .  S
O909        C915   1.266       .  A
O910       Ni928   1.902       .  S
O910        C912   1.270       .  A
Ni911       O914   1.922       .  S
Ni911       O916   1.908       .  S
C912        O922   1.279       .  A
C912       C1488   1.489       .  S
O913       Ni929   1.910       .  S
O913        C919   1.270       .  A
O914        C919   1.265       .  A
C915       C1191   1.478       .  S
O916        C918   1.276       .  A
O917       Ni928   1.899       .  S
C918        O924   1.278       .  A
C918       C1478   1.490       .  S
C919       C1471   1.488       .  S
H920        O921   0.966       .  S
O921       Ni929   1.903       .  S
O921       Ni923   1.906       .  S
O921       Ni928   1.896       .  S
O922       Ni923   1.937       .  S
Ni923       O927   1.949       .  S
Ni923       O925   1.934       .  S
O924       Ni929   1.944       .  S
C926        O927   1.280       .  A
C926       C1197   1.487       .  S
C931       C1468   1.485       .  S
C931        N932   1.352       .  A
C931        N936   1.361       .  A
N932        C933   1.357       .  A
C933       C1458   1.483       .  S
C933        N934   1.353       .  A
N934        C935   1.357       .  A
C935       C1518   1.485       .  S
C935        N936   1.363       .  A
C937       C1451   1.491       .  S
C937        N942   1.353       .  A
N938        C939   1.364       .  A
C939       C1481   1.467       .  S
N940        C941   1.357       .  A
C941       C1438   1.486       .  S
C941        N942   1.350       .  A
C943       C1428   1.489       .  S
C943        N944   1.361       .  A
C943        N948   1.369       .  A
N944        C945   1.356       .  A
C945       C1418   1.482       .  S
C945        N946   1.349   1_554  A
N946        C947   1.348       .  A
C947       C1491   1.475       .  S
C947        N948   1.362   1_556  A
O949       Ni955   1.936       .  S
O949        C970   1.273       .  A
O950       Ni973   1.938       .  S
O950        C959   1.274       .  A
O951       Ni955   1.904       .  S
O951      Ni2629   1.923   1_455  S
O951       Ni967   1.932       .  S
O951        H974   0.966       .  S
C952        O969   1.286   1_655  A
C952       O2617   1.276       .  A
C952       C1388   1.495       .  S
O953       Ni972   1.917       .  S
O953        C959   1.267       .  A
O954       Ni972   1.908       .  S
O954        C956   1.266       .  A
Ni955       O958   1.933       .  S
Ni955       O960   1.896       .  S
C956       O2622   1.276       .  A
C956       C1611   1.494       .  S
O957       Ni973   1.917       .  S
O957        C963   1.276       .  A
O958       C2619   1.279   1_455  A
C959       C1181   1.472       .  S
O960        C962   1.268       .  A
O961       Ni972   1.921       .  S
O961       C2608   1.277       .  A
C962       O2624   1.286   1_455  A
C962       C1411   1.479       .  S
C963       O2614   1.281       .  A
C963       C1398   1.490       .  S
H964        O965   0.966       .  S
O965       Ni973   1.912       .  S
O965      Ni2623   1.902       .  S
O965       Ni972   1.904       .  S
O966       Ni967   1.941       .  S
O966       C2612   1.274   1_455  A
Ni967       O971   1.938       .  S
Ni967       O969   1.933       .  S
Ni967      O2621   1.913   1_455  S
O968       Ni973   1.949       .  S
O968       C2618   1.283       .  A
C970        O971   1.276       .  A
C970       C1187   1.485       .  S
Ni973      O2607   1.915       .  S
O975       Ni981   1.928       .  S
O975        C996   1.273       .  A
O976       Ni999   1.919       .  S
O976        C985   1.264       .  A
O977       Ni981   1.924       .  S
O977       Ni999   1.914       .  S
O977       Ni993   1.935       .  S
O977       H1000   0.966       .  S
C978        O995   1.282       .  A
C978        O987   1.274       .  A
C978       C1361   1.492       .  S
O979       Ni998   1.929       .  S
O979        C985   1.268       .  A
O980       Ni998   1.890       .  S
O980        C982   1.268       .  A
Ni981       O984   1.932       .  S
Ni981       O986   1.923       .  S
C982        O992   1.278       .  A
C982       C1431   1.485       .  S
O983       Ni999   1.901       .  S
O983        C989   1.263       .  A
O984        C989   1.272       .  A
C985       C1173   1.471       .  S
O986        C988   1.276       .  A
O987       Ni998   1.909       .  S
C988        O994   1.278       .  A
C988       C1378   1.501       .  S
C989       C1368   1.488       .  S
H990        O991   0.966       .  S
O991       Ni999   1.906       .  S
O991       Ni993   1.922       .  S
O991       Ni998   1.905       .  S
O992       Ni993   1.944       .  S
Ni993       O997   1.944       .  S
Ni993       O995   1.942       .  S
O994       Ni999   1.940       .  S
C996        O997   1.280       .  A
C996       C1203   1.486       .  S
C1001      C1371   1.478       .  S
C1001      N1002   1.359       .  A
C1001      N1006   1.358       .  A
N1002      C1003   1.361       .  A
C1003      C1578   1.485       .  S
C1003      N1004   1.356       .  A
N1004      C1005   1.353       .  A
C1005      C1531   1.470       .  S
C1005      N1006   1.356       .  A
C1007      C1391   1.488       .  S
C1007      N2664   1.366       .  A
C1007      N1012   1.354       .  A
N1008      C2663   1.365       .  A
N1008      C2665   1.365       .  A
C1009      C3037   1.474   1_455  S
C1009      N2664   1.366       .  A
C1009      N1010   1.355       .  A
N1010      C1011   1.350       .  A
C1011      C1348   1.482       .  S
C1011      N1012   1.353       .  A
O1013     Ni1019   1.924       .  S
O1013      C1034   1.270       .  A
O1014     Ni1037   1.937       .  S
O1014      C1023   1.278       .  A
O1015     Ni1019   1.892       .  S
O1015     Ni1031   1.915       .  S
O1015      H1038   0.965       .  S
C1016      O1033   1.280       .  A
C1016      C1448   1.491       .  S
O1017     Ni1036   1.942       .  S
O1017      C1023   1.275       .  A
O1018     Ni1036   1.922       .  S
O1018      C1020   1.270       .  A
Ni1019     O1022   1.911       .  S
Ni1019     O1024   1.915       .  S
C1020      C1331   1.479       .  S
O1021     Ni1037   1.920       .  S
O1021      C1027   1.276   1_565  A
C1023      C1185   1.486       .  S
O1024      C1026   1.272       .  A
O1025     Ni1036   1.940       .  S
C1026      C1588   1.503       .  S
C1027      C1341   1.482   1_545  S
H1028      O1029   0.962       .  S
O1029     Ni1037   1.905       .  S
O1029     Ni1036   1.907       .  S
O1030     Ni1031   1.928       .  S
Ni1031     O1035   1.929       .  S
Ni1031     O1033   1.915       .  S
O1032     Ni1037   1.947       .  S
C1034      O1035   1.270       .  A
C1034      C1179   1.471       .  S
O1039     Ni1045   1.921       .  S
O1039      C1060   1.269       .  A
O1040     Ni1063   1.953       .  S
O1040      C1049   1.276       .  A
O1041     Ni1045   1.892       .  S
O1041     Ni1063   1.900       .  S
O1041     Ni1057   1.922       .  S
O1041      H1064   0.966       .  S
C1042      O1059   1.285       .  A
C1042      O1051   1.278       .  A
C1042      C1308   1.494       .  S
O1043     Ni1062   1.920       .  S
O1043      C1049   1.266       .  A
O1044     Ni1062   1.903       .  S
O1044      C1046   1.270       .  A
Ni1045     O1048   1.919       .  S
Ni1045     O1050   1.910       .  S
C1046      O1056   1.272       .  A
C1046      C1298   1.481       .  S
O1047     Ni1063   1.953       .  S
O1047      C1053   1.292       .  A
O1048      C1053   1.278       .  A
C1049      C1199   1.486       .  S
O1050      C1052   1.267       .  A
O1051     Ni1062   1.918       .  S
C1052      O1058   1.274       .  A
C1052      C1318   1.489       .  S
C1053      C1568   1.496       .  S
H1054      O1055   0.966       .  S
O1055     Ni1063   1.932       .  S
O1055     Ni1057   1.915       .  S
O1055     Ni1062   1.904       .  S
O1056     Ni1057   1.923       .  S
Ni1057     O1061   1.951       .  S
Ni1057     O1059   1.933       .  S
O1058     Ni1063   1.929       .  S
C1060      O1061   1.278       .  A
C1060      C1193   1.487       .  S
C1065      C1311   1.477       .  S
C1065      N1066   1.362       .  A
C1065      N1070   1.350       .  A
N1066      C1067   1.366       .  A
C1067      C1498   1.475       .  S
C1067      N1068   1.358       .  A
N1068      C1069   1.354       .  A
C1069      C1291   1.485       .  S
C1069      N1070   1.354       .  A
C1071      C1401   1.502       .  S
C1071      N1072   1.363       .  A
C1071      N2732   1.366       .  A
N1072      C1073   1.360       .  A
C1073      C1441   1.488       .  S
C1073      N1074   1.351       .  A
N1074      C1075   1.352       .  A
C1075      C2957   1.477       .  S
C1075      N2732   1.364       .  A
N1076      C2727   1.363       .  A
N1076      C2731   1.363       .  A
O1077     Ni1083   1.929       .  S
O1077      C1098   1.269       .  A
O1078     Ni1101   1.955       .  S
O1078      C1087   1.280       .  A
O1079     Ni1083   1.896       .  S
O1079     Ni1101   1.917       .  S
O1079     Ni1095   1.914       .  S
O1079      H1102   0.966       .  S
C1080      O1097   1.281       .  A
C1080      O1089   1.275       .  A
C1080      C1281   1.472       .  S
O1081     Ni1100   1.917       .  S
O1081      C1087   1.267       .  A
O1082     Ni1100   1.898       .  S
O1082      C1084   1.267       .  A
Ni1083     O1086   1.921       .  S
Ni1083     O1088   1.899       .  S
C1084      O1094   1.274       .  A
C1084      C1268   1.464       .  S
O1085     Ni1101   1.927       .  S
O1085      C1091   1.284       .  A
O1086      C1091   1.274       .  A
C1087      C1205   1.485       .  S
O1088      C1090   1.267       .  A
O1089     Ni1100   1.907       .  S
C1090      O1096   1.274       .  A
C1090      C1261   1.470       .  S
C1091      C1251   1.494       .  S
H1092      O1093   0.966       .  S
O1093     Ni1101   1.918       .  S
O1093     Ni1095   1.906       .  S
O1093     Ni1100   1.883       .  S
O1094     Ni1095   1.922       .  S
Ni1095     O1099   1.935       .  S
Ni1095     O1097   1.936       .  S
O1096     Ni1101   1.930       .  S
C1098      O1099   1.274       .  A
C1098      C1175   1.475       .  S
C1103      C1278   1.481       .  S
C1103      N1104   1.356       .  A
C1103      N1108   1.363       .  A
N1104      C1105   1.356       .  A
C1105      C1601   1.480       .  S
C1105      N1106   1.352       .  A
N1106      C1107   1.352       .  A
C1107      C1511   1.469       .  S
C1107      N1108   1.361       .  A
C1109      C1338   1.480       .  S
C1109      N1110   1.352       .  A
N1110      C1111   1.349       .  A
C1111      C1351   1.480       .  S
C1111      N1112   1.352       .  A
C1113      C1271   1.453       .  S
C1113      N1114   1.356       .  A
C1115      C1321   1.481       .  S
C1115      N1116   1.360       .  A
C1115      N1120   1.363       .  A
N1116      C1117   1.357       .  A
C1117      C1421   1.483       .  S
C1117      N1118   1.351   1_556  A
N1118      C1119   1.350       .  A
C1119      C1258   1.473       .  S
C1119      N1120   1.360   1_554  A
O1121     Ni1127   1.922       .  S
O1121      C1142   1.270       .  A
O1122     Ni1145   1.923       .  S
O1122      C1131   1.269       .  A
O1123     Ni1127   1.920       .  S
O1123     Ni1145   1.921       .  S
O1123     Ni1139   1.933       .  S
O1123      H1146   0.966       .  S
C1124      O1141   1.271       .  A
C1124      O1133   1.268       .  A
C1124      C1241   1.487       .  S
O1125     Ni1144   1.914       .  S
O1125      C1131   1.266       .  A
O1126     Ni1144   1.903       .  S
O1126      C1128   1.271       .  A
Ni1127     O1130   1.942       .  S
Ni1127     O1132   1.902       .  S
C1128      O1138   1.280       .  A
C1128      C1228   1.484       .  S
O1129     Ni1145   1.906       .  S
O1129      C1135   1.266       .  A
O1130      C1135   1.273       .  A
C1131      C1189   1.468       .  S
O1132      C1134   1.266       .  A
O1133     Ni1144   1.909       .  S
C1134      O1140   1.285       .  A
C1134      C1218   1.493       .  S
C1135      C1208   1.497       .  S
H1136      O1137   0.966       .  S
O1137     Ni1145   1.918       .  S
O1137     Ni1139   1.922       .  S
O1137     Ni1144   1.925       .  S
O1138     Ni1139   1.951       .  S
Ni1139     O1143   1.928       .  S
Ni1139     O1141   1.916       .  S
O1140     Ni1145   1.973       .  S
C1142      O1143   1.272       .  A
C1142      C1195   1.478       .  S
C1147      C1408   1.483       .  S
C1147      N1148   1.372       .  A
C1147      N2808   1.358       .  A
N1148      C1149   1.366       .  A
C1149      C1221   1.479       .  S
C1149      N1150   1.350       .  A
N1150      C2807   1.347       .  A
C1151      C1461   1.481       .  S
C1151      N2806   1.346       .  A
C1151      N1152   1.354       .  A
N1152      C2803   1.358       .  A
C1153      C1328   1.475       .  S
C1153      N1158   1.360       .  A
N1154      C1155   1.357       .  A
C1155      C1288   1.484       .  S
N1156      C1157   1.359       .  A
C1157      C1211   1.492       .  S
C1157      N1158   1.359       .  A
C1159      C2894   1.481       .  S
C1159      N1160   1.360   1_556  A
C1159      N1164   1.355       .  A
N1160      C1161   1.360       .  A
C1161      C1358   1.474       .  S
C1161      N1162   1.359       .  A
N1162      C1163   1.359       .  A
C1163      C1561   1.488       .  S
C1163      N1164   1.358   1_554  A
C1165      C1248   1.477       .  S
C1165      N1166   1.355   1_554  A
C1165      N1170   1.361   1_554  A
N1166      C1167   1.356       .  A
C1167      C1538   1.485       .  S
C1167      N1168   1.356       .  A
N1168      C1169   1.357       .  A
C1169      C1231   1.478       .  S
C1169      N1170   1.362       .  A
C1171      N2832   1.361       .  A
N1172      C1173   1.360       .  A
C1173      N2830   1.357       .  A
N1174      C2829   1.359   1_455  A
C1175      N1176   1.364   1_455  A
N1176      C2827   1.363       .  A
C1177      N1178   1.363       .  A
C1177      N1182   1.367       .  A
N1178      C1179   1.360       .  A
C1179      N1180   1.355       .  A
N1180      C1181   1.358       .  A
C1181      N1182   1.368       .  A
C1183      N1184   1.365       .  A
C1183      N1188   1.365       .  A
N1184      C1185   1.363       .  A
C1185      N1186   1.365       .  A
N1186      C1187   1.364       .  A
C1187      N1188   1.363       .  A
C1189      N2846   1.360   1_455  A
N1190      C2845   1.357       .  A
N1190      C1191   1.357       .  A
N1192      C2849   1.363       .  A
C1193      N2848   1.364   1_455  A
C1193      N1194   1.367       .  A
C1195      N1196   1.364       .  A
C1195      N1200   1.361       .  A
N1196      C1197   1.363       .  A
C1197      N1198   1.369       .  A
N1198      C1199   1.367       .  A
C1199      N1200   1.361       .  A
C1201      N1202   1.364       .  A
C1201      N1206   1.365       .  A
N1202      C1203   1.362       .  A
C1203      N1204   1.365       .  A
N1204      C1205   1.365       .  A
C1205      N1206   1.363       .  A
C1207      C1208   1.411       .  A
C1207      C1212   1.401       .  A
C1207      H1214   1.083       .  S
C1208      C1209   1.416       .  A
C1209      C1210   1.401       .  A
C1209     Br1216   1.921   1_565  S
C1210      C1211   1.408       .  A
C1210      H1215   1.083   1_565  S
C1211      C1212   1.414       .  A
C1212     Br1213   1.923       .  S
C1217      C1218   1.403       .  A
C1217      C1222   1.403       .  A
C1217      H1224   1.083       .  S
C1218      C1219   1.425       .  A
C1219      C1220   1.404       .  A
C1219     Br1226   1.923       .  S
C1220      C1221   1.397       .  A
C1220      H1225   1.084       .  S
C1221      C1222   1.411       .  A
C1222     Br2879   1.917   1_455  S
Br1223     C2878   1.917       .  S
C1227      C1228   1.409       .  A
C1227      H1234   1.084       .  S
C1228      C1229   1.407       .  A
C1229      C1230   1.400       .  A
C1229     Br1236   1.919       .  S
C1230      H1235   1.083   1_565  S
C1231      C1232   1.406       .  A
C1232     Br1233   1.922       .  S
C1237      C1238   1.411       .  A
C1237      C1242   1.401       .  A
C1237      H1244   1.081       .  S
C1238      C2815   1.487       .  S
C1238      C1239   1.408       .  A
C1239      C1240   1.396       .  A
C1239     Br2902   1.914       .  S
C1240      C1241   1.411       .  A
C1240      H1245   1.083       .  S
C1241      C1242   1.408       .  A
C1242     Br1243   1.921       .  S
Br1246     C2895   1.921       .  S
C1247      C1248   1.394       .  A
C1247      C1252   1.397       .  A
C1247      H1254   1.084       .  S
C1248      C1249   1.410       .  A
C1249      C1250   1.401       .  A
C1249     Br1256   1.917       .  S
C1250      C1251   1.406       .  A
C1250      H1255   1.083       .  S
C1251      C1252   1.428       .  A
C1252     Br1253   1.926       .  S
C1257      C1258   1.407       .  A
C1257      C1262   1.393       .  A
C1257      H1264   1.084       .  S
C1258      C1259   1.406       .  A
C1259      C1260   1.398       .  A
C1259     Br1266   1.919       .  S
C1260      C1261   1.408       .  A
C1260      H1265   1.083       .  S
C1261      C1262   1.406       .  A
C1262     Br1263   1.921       .  S
C1267      C1268   1.403       .  A
C1267      C1272   1.396       .  A
C1267      H1274   1.084       .  S
C1268      C1269   1.411       .  A
C1269      C1270   1.392       .  A
C1270      C1271   1.397       .  A
C1271      C1272   1.407       .  A
C1272     Br1273   1.920       .  S
C1277      C1278   1.406       .  A
C1277      C1282   1.395       .  A
C1277      H1284   1.083       .  S
C1278      C1279   1.414       .  A
C1279      C1280   1.401       .  A
C1279     Br1286   1.920       .  S
C1280      C1281   1.404       .  A
C1280      H1285   1.084       .  S
C1281      C1282   1.406       .  A
C1282     Br1283   1.920       .  S
C1287      C1288   1.409       .  A
C1287      C1292   1.397       .  A
C1287      H1294   1.083       .  S
C1288      C1289   1.418       .  A
C1289      C1290   1.393       .  A
C1289     Br1296   1.923       .  S
C1290      C1291   1.404       .  A
C1290      H1295   1.084       .  S
C1291      C1292   1.410       .  A
C1292     Br1293   1.920       .  S
C1297      C1298   1.412       .  A
C1297      C2958   1.399       .  A
C1297      H1304   1.083       .  S
C1298      C1299   1.412       .  A
C1299      C1300   1.397   1_455  A
C1299     Br1306   1.922   1_455  S
C1300      C1301   1.404   1_655  A
C1300      H1305   1.084       .  S
C1301      C2731   1.469   1_455  S
C1301      C2958   1.403       .  A
C1302      C2953   1.402       .  A
C1302      C2957   1.405       .  A
C1302     Br1303   1.918       .  S
C1307      C1308   1.417       .  A
C1307      C1312   1.402       .  A
C1307      H1314   1.083       .  S
C1308      C1309   1.410       .  A
C1309      C1310   1.400       .  A
C1309     Br1316   1.915       .  S
C1310      C1311   1.406       .  A
C1310      H1315   1.084       .  S
C1311      C1312   1.402       .  A
C1312     Br1313   1.919       .  S
C1317      C1318   1.406       .  A
C1317      C1322   1.402       .  A
C1317      H1324   1.083       .  S
C1318      C1319   1.421       .  A
C1319      C1320   1.397       .  A
C1319     Br1326   1.918       .  S
C1320      C1321   1.398       .  A
C1320      H1325   1.084       .  S
C1321      C1322   1.411       .  A
C1322     Br1323   1.919       .  S
C1327      C1328   1.407       .  A
C1327      C1332   1.404       .  A
C1327      H1334   1.083       .  S
C1328      C1329   1.408   1_565  A
C1329      C1330   1.395   1_545  A
C1329     Br1336   1.922       .  S
C1330      C1331   1.407       .  A
C1330      H1335   1.084   1_565  S
C1331      C1332   1.407       .  A
C1332     Br1333   1.914       .  S
C1337      C1338   1.408       .  A
C1337      C1342   1.395       .  A
C1338      C1339   1.407   1_565  A
C1339      C1340   1.401       .  A
C1339     Br1346   1.916       .  S
C1340      C1341   1.410   1_545  A
C1340      H1345   1.083       .  S
C1341      C1342   1.407       .  A
C1347      C1348   1.406       .  A
C1347      C1352   1.389       .  A
C1347      H1354   1.081       .  S
C1348      C1349   1.416       .  A
C1349      C1350   1.397       .  A
C1349     Br1356   1.921       .  S
C1350      C1351   1.405       .  A
C1350      H1355   1.083       .  S
C1351      C1352   1.408       .  A
C1352     Br1353   1.921       .  S
C1357      C1358   1.404       .  A
C1357      C1362   1.406       .  A
C1357      H3020   1.084       .  S
C1358      C1359   1.403       .  A
C1359      C1360   1.397       .  A
C1359     Br1366   1.921       .  S
C1360      C1361   1.411       .  A
C1360      H1365   1.083       .  S
C1361      C1362   1.416       .  A
C1362     Br1363   1.920       .  S
H1364      C3013   1.084       .  S
C1367      C1368   1.409       .  A
C1367      C1372   1.393       .  A
C1367      H1374   1.083       .  S
C1368      C1369   1.416       .  A
C1369      C1370   1.402       .  A
C1369     Br1376   1.922       .  S
C1370      C1371   1.406       .  A
C1370      H1375   1.083       .  S
C1371      C1372   1.407       .  A
C1372     Br1373   1.922       .  S
C1377      C1378   1.412       .  A
C1377      C3038   1.395       .  A
C1377      H3040   1.083       .  S
C1378      C1379   1.421       .  A
C1379      C1380   1.409       .  A
C1379     Br1386   1.920       .  S
C1380      C1381   1.402       .  A
C1380      H1385   1.084       .  S
C1381      C2665   1.476       .  S
C1381      C3038   1.404       .  A
C1382      C3033   1.391   1_455  A
C1382      C3037   1.408   1_455  A
C1382     Br1383   1.923       .  S
H1384      C3033   1.084       .  S
C1387      C1388   1.415       .  A
C1387      C1392   1.401       .  A
C1387      H1394   1.082       .  S
C1388      C1389   1.405   1_655  A
C1389      C1390   1.401       .  A
C1389     Br1396   1.911       .  S
C1390      C1391   1.412       .  A
C1390      H1395   1.084       .  S
C1391      C1392   1.408   1_455  A
C1392     Br1393   1.921       .  S
C1397      C3054   1.408   1_455  A
C1397      C1402   1.405       .  A
C1397      H1404   1.083       .  S
C1398      C3053   1.407       .  A
C1398      C1399   1.410       .  A
C1399      C1400   1.401       .  A
C1399     Br1406   1.922       .  S
C1400      C1401   1.411       .  A
C1400      H1405   1.083       .  S
C1401      C3058   1.419       .  A
C1402      C3057   1.418   1_455  A
C1402     Br1403   1.920       .  S
C1407      C1408   1.407       .  A
C1407      C1412   1.403       .  A
C1407      H1414   1.084       .  S
C1408      C3065   1.411       .  A
C1409      C3064   1.411       .  A
C1409      C1410   1.405       .  A
C1409     Br1416   1.919       .  S
C1410      C3067   1.406       .  A
C1410      H1415   1.084       .  S
C1411      C3066   1.406       .  A
C1411      C1412   1.409       .  A
C1412     Br1413   1.918       .  S
C1417      C1418   1.408   1_556  A
C1417      C1422   1.392       .  A
C1417      H1424   1.083       .  S
C1418      C1419   1.408       .  A
C1419      C1420   1.394       .  A
C1419     Br1426   1.920       .  S
C1420      C1421   1.411   1_554  A
C1420      H1425   1.083       .  S
C1421      C1422   1.413       .  A
C1422     Br1423   1.920       .  S
C1427      C1428   1.414       .  A
C1427      C1432   1.404       .  A
C1427      H1434   1.083       .  S
C1428      C1429   1.409       .  A
C1429      C1430   1.394       .  A
C1429     Br1436   1.918       .  S
C1430      C1431   1.407       .  A
C1430      H1435   1.084       .  S
C1431      C1432   1.408       .  A
C1432     Br1433   1.920       .  S
C1437      C1438   1.402       .  A
C1437      C1442   1.399       .  A
C1437      H1444   1.083       .  S
C1438      C1439   1.411       .  A
C1439      C1440   1.398       .  A
C1439     Br1446   1.921       .  S
C1440      C1441   1.406       .  A
C1440      H1445   1.083       .  S
C1441      C1442   1.420       .  A
C1442     Br1443   1.922       .  S
C1447      C1452   1.406       .  A
C1447      H1454   1.083       .  S
C1448      C1449   1.413       .  A
C1449      C1450   1.391       .  A
C1449     Br1456   1.923       .  S
C1450      C1451   1.407       .  A
C1450      H1455   1.082       .  S
C1452     Br1453   1.921       .  S
C1457      C1458   1.399       .  A
C1457      C1462   1.390       .  A
C1457      H1464   1.082       .  S
C1458      C1459   1.409       .  A
C1459      C1460   1.397       .  A
C1459     Br1466   1.919       .  S
C1460      C1461   1.408       .  A
C1460      H1465   1.083       .  S
C1461      C1462   1.419       .  A
C1462     Br1463   1.927       .  S
C1467      C1468   1.399       .  A
C1467      C1472   1.399       .  A
C1467      H1474   1.082       .  S
C1468      C1469   1.416       .  A
C1469      C1470   1.396       .  A
C1469     Br1476   1.913       .  S
C1470      C1471   1.401       .  A
C1470      H1475   1.084       .  S
C1471      C1472   1.424       .  A
C1472     Br1473   1.925       .  S
C1477      C1478   1.413       .  A
C1477      C1482   1.401       .  A
C1477      H1484   1.083       .  S
C1478      C1479   1.420       .  A
C1479      C1480   1.396       .  A
C1479     Br1486   1.924       .  S
C1480      C1481   1.398       .  A
C1480      H1485   1.084   1_565  S
C1481      C1482   1.401       .  A
C1482     Br1483   1.918       .  S
C1487      C1488   1.414       .  A
C1487      C1492   1.400       .  A
C1487      H1494   1.083       .  S
C1488      C1489   1.410       .  A
C1489      C1490   1.398       .  A
C1489     Br1496   1.921       .  S
C1490      C1491   1.407       .  A
C1490      H1495   1.084       .  S
C1491      C1492   1.402       .  A
C1492     Br1493   1.915       .  S
C1497      C1498   1.405       .  A
C1497      C1502   1.399       .  A
C1497      H1504   1.084       .  S
C1498      C1499   1.411       .  A
C1499      C1500   1.399       .  A
C1499     Br1506   1.919       .  S
C1500      C1501   1.402       .  A
C1500      H1505   1.084       .  S
C1501      C1502   1.408       .  A
C1502     Br1503   1.921       .  S
C1507      C1508   1.413       .  A
C1507      C1512   1.398       .  A
C1507      H1514   1.083       .  S
C1508      C1509   1.413       .  A
C1509      C1510   1.397       .  A
C1509     Br1516   1.923       .  S
C1510      C1511   1.405       .  A
C1510      H1515   1.084       .  S
C1511      C1512   1.402       .  A
C1512     Br1513   1.919       .  S
C1517      C1518   1.413       .  A
C1517      C1522   1.399       .  A
C1517      H1524   1.082       .  S
C1518      C1519   1.413       .  A
C1519      C1520   1.395       .  A
C1519     Br1526   1.921       .  S
C1520      C1521   1.403       .  A
C1520      H1525   1.084       .  S
C1521      C1522   1.401       .  A
C1522     Br1523   1.918       .  S
C1527      C1528   1.407       .  A
C1527      C1532   1.398       .  A
C1527      H1534   1.083       .  S
C1528      C1529   1.421       .  A
C1529      C1530   1.399       .  A
C1529     Br1536   1.923       .  S
C1530      C1531   1.397       .  A
C1530      H1535   1.084       .  S
C1531      C1532   1.408       .  A
C1532     Br1533   1.922       .  S
C1537      C1538   1.408       .  A
C1537      C1542   1.396       .  A
C1537      H1544   1.083   1_556  S
C1538      C1539   1.414       .  A
C1539      C1540   1.397       .  A
C1539     Br1546   1.922       .  S
C1542     Br1543   1.920   1_556  S
C1547      C1548   1.402   1_565  A
C1547      C1552   1.400       .  A
C1547      H1554   1.084       .  S
C1548      C1549   1.408       .  A
C1549      C1550   1.395       .  A
C1549     Br1556   1.922       .  S
C1550      C1551   1.407   1_545  A
C1550      H1555   1.084       .  S
C1551      C1552   1.415       .  A
C1552     Br1553   1.922       .  S
C1557      C1558   1.407       .  A
C1557      C3218   1.399       .  A
C1557      H3220   1.083       .  S
C1558      C1559   1.418   1_554  A
C1559      C1560   1.394       .  A
C1559     Br1566   1.926       .  S
C1560      C3217   1.405   1_556  A
C1560      H1565   1.083       .  S
C1561      C3216   1.404   1_554  A
C1561      C1562   1.409       .  A
C1562      C3213   1.400       .  A
C1562     Br1563   1.918       .  S
H1564      C3213   1.083       .  S
C1567      C1568   1.403       .  A
C1567      C1572   1.397       .  A
C1567      H1574   1.083       .  S
C1568      C1569   1.426   1_455  A
C1569      C1570   1.407       .  A
C1569     Br1576   1.923       .  S
C1570      C1571   1.398   1_655  A
C1570      H1575   1.083       .  S
C1571      C1572   1.410       .  A
C1572     Br1573   1.918       .  S
C1577      C1578   1.406       .  A
C1577      C1582   1.396   1_565  A
C1577      H1584   1.083       .  S
C1578      C1579   1.416       .  A
C1579      C1580   1.396   1_565  A
C1579     Br1586   1.923       .  S
C1580      C1581   1.404       .  A
C1580      H1585   1.083       .  S
C1581      C1582   1.411       .  A
C1587      C1588   1.414       .  A
C1587      C1592   1.404       .  A
C1587      H1594   1.083       .  S
C1588      C1589   1.412       .  A
C1589      C1590   1.410       .  A
C1590      C1591   1.413       .  A
C1590      H1595   1.083       .  S
C1591      C1592   1.409       .  A
C1592     Br1593   1.920       .  S
C1597      C1598   1.409       .  A
C1597      C1602   1.393       .  A
C1597      H1604   1.083       .  S
C1598      C1599   1.417       .  A
C1599      C1600   1.396       .  A
C1599     Br1606   1.924       .  S
C1600      C1601   1.405       .  A
C1600      H1605   1.084       .  S
C1601      C1602   1.404       .  A
C1602     Br1603   1.917       .  S
C1607      C1608   1.398       .  A
C1607      C1612   1.404       .  A
C1607      H1614   1.084       .  S
C1608      C3265   1.410       .  A
C1609      C3264   1.409   1_455  A
C1609      C1610   1.398       .  A
C1609     Br1616   1.920       .  S
C1610      C3267   1.403   1_455  A
C1610      H1615   1.084       .  S
C1611      C3266   1.406       .  A
C1611      C1612   1.424       .  A
C1612     Br1613   1.922       .  S
C1617      C1618   1.415       .  A
C1617      H1624   1.083       .  S
C1618      C1619   1.413       .  A
C1619      C1620   1.401       .  A
C1619     Br1626   1.922       .  S
C1620      C1621   1.408       .  A
C1620      H1625   1.082       .  S
C1622     Br1623   1.922   1_545  S
C1627      C3284   1.407       .  A
C1627      C1632   1.401       .  A
C1627      H1634   1.084       .  S
C1628      C3283   1.404   1_655  A
C1628      C3285   1.408       .  A
C1629      C3284   1.413       .  A
C1629      C1630   1.397       .  A
C1629     Br3292   1.923       .  S
C1630      C1631   1.405       .  A
C1630      H1635   1.084       .  S
C1631      C1632   1.409       .  A
C1632     Br1633   1.919       .  S
Br1636     C3285   1.921       .  S
C1637      C1638   1.402       .  A
C1637      C1642   1.409       .  A
C1637      H1644   1.083       .  S
C1638      C1639   1.417       .  A
C1639      C1640   1.402       .  A
C1640      C1641   1.407       .  A
C1640      H1645   1.084       .  S
C1641      C1642   1.423       .  A
C1642     Br1643   1.920       .  S
C1647      C1648   1.415       .  A
C1647      C1652   1.405       .  A
C1647      H1654   1.083       .  S
C1648      C1649   1.407       .  A
C1649      C1650   1.397       .  A
C1649     Br1656   1.921       .  S
C1650      C1651   1.409       .  A
C1650      H1655   1.081       .  S
C1651      C1652   1.404       .  A
C1652     Br1653   1.917       .  S
O1657     Ni1663   1.930       .  S
O1657      C1678   1.269       .  A
O1658     Ni1681   1.937       .  S
O1658      C1667   1.274       .  A
O1659     Ni1663   1.910       .  S
O1659     Ni1681   1.905       .  S
O1659     Ni1675   1.898       .  S
O1659      H1682   0.967       .  S
C1660      O1677   1.267       .  A
C1660      O1669   1.266       .  A
C1660      C2446   1.496       .  S
O1661     Ni1680   1.899       .  S
O1661      C1667   1.264       .  A
O1662     Ni1680   1.905       .  S
O1662      C1664   1.271       .  A
Ni1663     O1666   1.920       .  S
Ni1663     O1668   1.906       .  S
C1664      O1674   1.280       .  A
C1664      C2459   1.477       .  S
O1665     Ni1681   1.927       .  S
O1665      C1671   1.280       .  A
O1666      C1671   1.275       .  A
C1667      C1999   1.472   1_545  S
O1668      C1670   1.266       .  A
O1669     Ni1680   1.919       .  S
C1670      O1676   1.279       .  A
C1670      C2469   1.494       .  S
C1671      C2479   1.474       .  S
H1672      O1673   0.966       .  S
O1673     Ni1681   1.954       .  S
O1673     Ni1675   1.931       .  S
O1673     Ni1680   1.926       .  S
O1674     Ni1675   1.947       .  S
Ni1675     O1679   1.920       .  S
Ni1675     O1677   1.917       .  S
O1676     Ni1681   1.947       .  S
C1678      O1679   1.267       .  A
C1678      C2029   1.469       .  S
C1683      C2436   1.476   1_455  S
C1683      N1684   1.360   1_455  A
N1684      C1685   1.362   1_655  A
C1685      C2476   1.482   1_455  S
N1686      C1687   1.350       .  A
C1687      C2426   1.481       .  S
C1687      N1688   1.353       .  A
C1689      C2419   1.479       .  S
C1689      N1690   1.368       .  A
C1689      N2522   1.359       .  A
N1690      C1691   1.364       .  A
C1691      C2466   1.484       .  S
C1691      N1692   1.353       .  A
N1692      C2521   1.352       .  A
C1693      C2409   1.484       .  S
C1693      N2520   1.356       .  A
C1693      N1694   1.356       .  A
N1694      C2517   1.357       .  A
C1695      C2399   1.478       .  S
C1695      N1696   1.350       .  A
C1695      N1700   1.365   1_556  A
N1696      C1697   1.347   1_556  A
C1697      C2386   1.481       .  S
C1697      N1698   1.353       .  A
N1698      C1699   1.357       .  A
C1699      C2456   1.482       .  S
C1699      N1700   1.370       .  A
C1701      C3277   1.487   1_556  S
C1701      N2530   1.360       .  A
C1701      N1706   1.361       .  A
N1702      C2529   1.356       .  A
N1702      C2531   1.354   1_554  A
C1703      C2369   1.485       .  S
C1703      N2530   1.359       .  A
C1703      N1704   1.355       .  A
N1704      C1705   1.353       .  A
C1705      C2376   1.480       .  S
C1705      N1706   1.361       .  A
O1707     Ni1713   1.922       .  S
O1707      C1728   1.267       .  A
O1708     Ni1731   1.941       .  S
O1708      C1717   1.278       .  A
O1709     Ni1713   1.898       .  S
O1709     Ni1731   1.914       .  S
O1709     Ni1725   1.909       .  S
O1709      H1732   0.963       .  S
C1710      O1727   1.270       .  A
C1710      O1719   1.273       .  A
C1710      C2336   1.490       .  S
O1711     Ni1730   1.924       .  S
O1711      C1717   1.271       .  A
O1712     Ni1730   1.904       .  S
O1712      C1714   1.271       .  A
Ni1713     O1716   1.902       .  S
Ni1713     O1718   1.902       .  S
C1714      O1724   1.280       .  A
C1714      C2356   1.489       .  S
O1715     Ni1731   1.935       .  S
O1715      C1721   1.280       .  A
O1716      C1721   1.273       .  A
C1717      C2005   1.482       .  S
O1718      C1720   1.270       .  A
O1719     Ni1730   1.928       .  S
C1720      O1726   1.273       .  A
C1720      C2329   1.484       .  S
C1721      C2349   1.476       .  S
H1722      O1723   0.961       .  S
O1723     Ni1731   1.930       .  S
O1723     Ni1725   1.917       .  S
O1723     Ni1730   1.909       .  S
O1724     Ni1725   1.942       .  S
Ni1725     O1729   1.941       .  S
Ni1725     O1727   1.908       .  S
O1726     Ni1731   1.920       .  S
C1728      O1729   1.274       .  A
C1728      C2011   1.480       .  S
O1733     Ni1739   1.921       .  S
O1733      C1754   1.270       .  A
O1734     Ni1757   1.938       .  S
O1734      C1743   1.274       .  A
O1735     Ni1739   1.918       .  S
O1735     Ni1757   1.925       .  S
O1735     Ni1751   1.950       .  S
O1735      H1758   0.966       .  S
C1736      O1753   1.284       .  A
C1736      O1745   1.275       .  A
C1736      C2379   1.471       .  S
O1737     Ni1756   1.923       .  S
O1737      C1743   1.269       .  A
O1738     Ni1756   1.902       .  S
O1738      C1740   1.269       .  A
Ni1739     O1742   1.931       .  S
Ni1739     O1744   1.904       .  S
C1740      O1750   1.277       .  A
C1740      C2316   1.489       .  S
O1741     Ni1757   1.907       .  S
O1741      C1747   1.267       .  A
O1742      C1747   1.266       .  A
C1743      C2019   1.479       .  S
O1744      C1746   1.276       .  A
O1745     Ni1756   1.908       .  S
C1746      O1752   1.287       .  A
C1746      C2306   1.487       .  S
C1747      C2299   1.492       .  S
H1748      O1749   0.966       .  S
O1749     Ni1757   1.895       .  S
O1749     Ni1751   1.902       .  S
O1749     Ni1756   1.894       .  S
O1750     Ni1751   1.936       .  S
Ni1751     O1755   1.942       .  S
Ni1751     O1753   1.937       .  S
O1752     Ni1757   1.965       .  S
C1754      O1755   1.278       .  A
C1754      C2025   1.485       .  S
C1759      C2296   1.490       .  S
C1759      N1760   1.355       .  A
C1759      N1764   1.364       .  A
N1760      C1761   1.359       .  A
C1761      C2286   1.481       .  S
C1761      N1762   1.350       .  A
N1762      C1763   1.352       .  A
C1763      C2346   1.473       .  S
C1763      N1764   1.363       .  A
C1765      C2279   1.491   1_545  S
C1765      N2594   1.364   1_545  A
C1765      N1770   1.354       .  A
N1766      C2593   1.367       .  A
N1766      C1767   1.370       .  A
C1767      C2309   1.483       .  S
C1767      N2596   1.357       .  A
N1768      C2595   1.360   1_545  A
N1768      C1769   1.356       .  A
C1769      C2266   1.487       .  S
C1769      N1770   1.349       .  A
C1771      C2256   1.491       .  S
C1771      N1772   1.363       .  A
C1771      N1776   1.365       .  A
N1772      C1773   1.358       .  A
C1773      C2246   1.483       .  S
C1773      N1774   1.351   1_554  A
N1774      C1775   1.347       .  A
C1775      C2319   1.470       .  S
C1775      N1776   1.359   1_556  A
O1777     Ni1783   1.929       .  S
O1777      C1798   1.273       .  A
O1778     Ni1801   1.935       .  S
O1778      C1787   1.273       .  A
O1779     Ni1783   1.894       .  S
O1779     Ni1795   1.920       .  S
O1779      H1802   0.966       .  S
C1780      O1797   1.283       .  A
C1780      C2216   1.489       .  S
O1781     Ni1800   1.924       .  S
O1781      C1787   1.269       .  A
O1782     Ni1800   1.914       .  S
O1782      C1784   1.268       .  A
Ni1783     O1786   1.926       .  S
Ni1783     O1788   1.906       .  S
C1784      C2439   1.488       .  S
O1785     Ni1801   1.912       .  S
O1785      C1791   1.276   1_655  A
C1787      C2009   1.475       .  S
O1788      C1790   1.268       .  A
O1789     Ni1800   1.918       .  S
C1790      C2239   1.486       .  S
C1791      C2226   1.483   1_455  S
H1792      O1793   0.966       .  S
O1793     Ni1801   1.910       .  S
O1793     Ni1800   1.903       .  S
O1794     Ni1795   1.933       .  S
Ni1795     O1799   1.926       .  S
Ni1795     O1797   1.924       .  S
O1796     Ni1801   1.941   1_455  S
C1798      O1799   1.272       .  A
C1798      C2015   1.471       .  S
O1803     Ni1809   1.918       .  S
O1803      C1824   1.271       .  A
O1804     Ni1827   1.928       .  S
O1804      C1813   1.271       .  A
O1805     Ni1809   1.910       .  S
O1805     Ni1827   1.914       .  S
O1805     Ni1821   1.932       .  S
O1805      H1828   0.966       .  S
C1806      O1823   1.279       .  A
C1806      O1815   1.276       .  A
C1806      C2189   1.482       .  S
O1807     Ni1826   1.929       .  S
O1807      C1813   1.270       .  A
O1808     Ni1826   1.900       .  S
O1808      C1810   1.269       .  A
Ni1809     O1812   1.931       .  S
Ni1809     O1814   1.905       .  S
C1810      O1820   1.272       .  A
C1810      C2259   1.476       .  S
O1811     Ni1827   1.905       .  S
O1811      C1817   1.268       .  A
O1812      C1817   1.273       .  A
C1813      C2001   1.475       .  S
O1814      C1816   1.271       .  A
O1815     Ni1826   1.915       .  S
C1816      O1822   1.280       .  A
C1816      C2206   1.472       .  S
C1817      C2196   1.490       .  S
H1818      O1819   0.966       .  S
O1819     Ni1827   1.907       .  S
O1819     Ni1821   1.907       .  S
O1819     Ni1826   1.901       .  S
O1820     Ni1821   1.926       .  S
Ni1821     O1825   1.922       .  S
Ni1821     O1823   1.932       .  S
O1822     Ni1827   1.951       .  S
C1824      O1825   1.271       .  A
C1824      C2031   1.466       .  S
C1829      C2199   1.489       .  S
C1829      N1830   1.358       .  A
C1829      N1834   1.359       .  A
N1830      C1831   1.357       .  A
C1831      C2406   1.488       .  S
C1831      N1832   1.357       .  A
N1832      C1833   1.356       .  A
C1833      C2359   1.466       .  S
C1833      N1834   1.359       .  A
C1835      C2219   1.485       .  S
C1835      N1840   1.356       .  A
C1837      N1838   1.351       .  A
N1838      C1839   1.349       .  A
C1839      C2176   1.483       .  S
C1839      N1840   1.357       .  A
O1841     Ni1847   1.923       .  S
O1841      C1862   1.269       .  A
O1842     Ni1865   1.935       .  S
O1842      C1851   1.275       .  A
O1843     Ni1847   1.892       .  S
O1843     Ni2693   1.908   1_545  S
O1843     Ni1859   1.919       .  S
O1843      H1866   0.966       .  S
C1844      O1861   1.281   1_565  A
C1844      O2681   1.282       .  A
C1844      C2276   1.498       .  S
O1845     Ni1864   1.934       .  S
O1845      C1851   1.273       .  A
O1846     Ni1864   1.919       .  S
O1846      C1848   1.270       .  A
Ni1847     O1850   1.917       .  S
Ni1847     O1852   1.903       .  S
C1848      O2686   1.271       .  A
C1848      C2159   1.484       .  S
O1849     Ni1865   1.935       .  S
O1849      C1855   1.282       .  A
O1850      C2683   1.277       .  A
C1851      C2013   1.480       .  S
O1852      C1854   1.270       .  A
O1853     Ni1864   1.938       .  S
O1853      C2672   1.282       .  A
C1854      O2688   1.280   1_545  A
C1854      C2416   1.499       .  S
C1855      O2678   1.278       .  A
C1855      C2169   1.492       .  S
H1856      O1857   0.963       .  S
O1857     Ni1865   1.917       .  S
O1857     Ni2687   1.900       .  S
O1857     Ni1864   1.909       .  S
O1858     Ni1859   1.920   1_565  S
O1858      C2676   1.269       .  A
Ni1859     O1863   1.934       .  S
Ni1859     O1861   1.916       .  S
Ni1859     O2685   1.902   1_545  S
O1860     Ni1865   1.944       .  S
O1860      C2682   1.280       .  A
C1862      O1863   1.271       .  A
C1862      C2007   1.473       .  S
Ni1865     O2671   1.915       .  S
O1867     Ni1873   1.922       .  S
O1867      C1888   1.270       .  A
O1868     Ni1891   1.949       .  S
O1868      C1877   1.273       .  A
O1869     Ni1873   1.901       .  S
O1869     Ni1891   1.904       .  S
O1869     Ni1885   1.919       .  S
O1869      H1892   0.966       .  S
C1870      O1887   1.284       .  A
C1870      O1879   1.276       .  A
C1870      C2136   1.476       .  S
O1871     Ni1890   1.911       .  S
O1871      C1877   1.265       .  A
O1872     Ni1890   1.906       .  S
O1872      C1874   1.270       .  A
Ni1873     O1876   1.913       .  S
Ni1873     O1878   1.925       .  S
C1874      O1884   1.275       .  A
C1874      C2126   1.473       .  S
O1875     Ni1891   1.947       .  S
O1875      C1881   1.291       .  A
O1876      C1881   1.275       .  A
C1877      C2027   1.482       .  S
O1878      C1880   1.272       .  A
O1879     Ni1890   1.908       .  S
C1880      O1886   1.266       .  A
C1880      C2146   1.489       .  S
C1881      C2396   1.495       .  S
H1882      O1883   0.966       .  S
O1883     Ni1891   1.930       .  S
O1883     Ni1885   1.912       .  S
O1883     Ni1890   1.898       .  S
O1884     Ni1885   1.926       .  S
Ni1885     O1889   1.951       .  S
Ni1885     O1887   1.932       .  S
O1886     Ni1891   1.904       .  S
C1888      O1889   1.277       .  A
C1888      C2021   1.491       .  S
C1893      C2139   1.467       .  S
C1893      N1894   1.358       .  A
C1893      N1898   1.351       .  A
N1894      C1895   1.361       .  A
C1895      C2326   1.467       .  S
C1895      N1896   1.358       .  A
N1896      C1897   1.353       .  A
C1897      C2119   1.483       .  S
C1897      N1898   1.354       .  A
C1899      C2229   1.492       .  S
C1899      N1900   1.359       .  A
N1900      C1901   1.356       .  A
C1901      C2269   1.485       .  S
C1901      N1902   1.350       .  A
N1902      C1903   1.354       .  A
O1905     Ni1911   1.930       .  S
O1905      C1926   1.270       .  A
O1906     Ni1929   1.931       .  S
O1906      C1915   1.272       .  A
O1907     Ni1911   1.900       .  S
O1907     Ni1929   1.902       .  S
O1907     Ni1923   1.925       .  S
O1907      H1930   0.966       .  S
C1908      O1925   1.284       .  A
C1908      O1917   1.278       .  A
C1908      C2109   1.476       .  S
O1909     Ni1928   1.916       .  S
O1909      C1915   1.266       .  A
O1910     Ni1928   1.901       .  S
O1910      C1912   1.265       .  A
Ni1911     O1914   1.930       .  S
Ni1911     O1916   1.908       .  S
C1912      O1922   1.273       .  A
C1912      C2096   1.466       .  S
O1913     Ni1929   1.917       .  S
O1913      C1919   1.281       .  A
O1914      C1919   1.277       .  A
C1915      C2033   1.464       .  S
O1916      C1918   1.270       .  A
O1917     Ni1928   1.912       .  S
C1918      O1924   1.274       .  A
C1918      C2089   1.484       .  S
C1919      C2079   1.494       .  S
H1920      O1921   0.966       .  S
O1921     Ni1929   1.918       .  S
O1921     Ni1923   1.897       .  S
O1921     Ni1928   1.886       .  S
O1922     Ni1923   1.930       .  S
Ni1923     O1927   1.922       .  S
Ni1923     O1925   1.940       .  S
O1924     Ni1929   1.931       .  S
C1926      O1927   1.270       .  A
C1926      C2003   1.466       .  S
C1931      C2106   1.479       .  S
C1931      N1932   1.356       .  A
C1931      N1936   1.365       .  A
N1932      C1933   1.355       .  A
C1933      C2429   1.482       .  S
C1933      N1934   1.353       .  A
N1934      C1935   1.352       .  A
C1935      C2339   1.479       .  S
C1935      N1936   1.363       .  A
C1937      C2166   1.489       .  S
C1937      N1938   1.357       .  A
C1937      N2770   1.364       .  A
N1938      C1939   1.357       .  A
C1939      C2179   1.479       .  S
C1939      N1940   1.353       .  A
N1940      C2769   1.352       .  A
C1941      C2099   1.480       .  S
C1941      N2768   1.356   1_545  A
C1941      N1942   1.365       .  A
N1942      C2765   1.364   1_545  A
C1943      C2149   1.493       .  S
C1943      N1944   1.366       .  A
C1943      N1948   1.366       .  A
N1944      C1945   1.362       .  A
C1945      C2249   1.489   1_556  S
C1945      N1946   1.352   1_556  A
N1946      C1947   1.349       .  A
C1947      C2086   1.476       .  S
C1947      N1948   1.361   1_554  A
O1949     Ni1955   1.914       .  S
O1949      C1970   1.267       .  A
O1950     Ni1973   1.930       .  S
O1950      C1959   1.272       .  A
O1951     Ni1955   1.915       .  S
O1951     Ni1973   1.918       .  S
O1951     Ni1967   1.922       .  S
O1951      H1974   0.965       .  S
C1952      O1969   1.268       .  A
C1952      O1961   1.268       .  A
C1952      C2069   1.486       .  S
O1953     Ni1972   1.915       .  S
O1953      C1959   1.266       .  A
O1954     Ni1972   1.900       .  S
O1954      C1956   1.271       .  A
Ni1955     O1958   1.925       .  S
Ni1955     O1960   1.902       .  S
C1956      O1966   1.281       .  A
C1956      C2056   1.486       .  S
O1957     Ni1973   1.914       .  S
O1957      C1963   1.272       .  A
O1958      C1963   1.272       .  A
C1959      C2017   1.476       .  S
O1960      C1962   1.267       .  A
O1961     Ni1972   1.914       .  S
C1962      O1968   1.284       .  A
C1962      C2046   1.494       .  S
C1963      C2036   1.493       .  S
H1964      O1965   0.966       .  S
O1965     Ni1973   1.930       .  S
O1965     Ni1967   1.926       .  S
O1965     Ni1972   1.928       .  S
O1966     Ni1967   1.951       .  S
Ni1967     O1971   1.926       .  S
Ni1967     O1969   1.909       .  S
O1968     Ni1973   1.966       .  S
C1970      O1971   1.271       .  A
C1970      C2023   1.470       .  S
C1975      C2236   1.487       .  S
C1975      N1976   1.374       .  A
N1976      C1977   1.369       .  A
C1977      C2049   1.480       .  S
C1977      N1978   1.348       .  A
C1979      C2289   1.476       .  S
C1979      N1980   1.352       .  A
C1981      C2156   1.480       .  S
C1981      N2810   1.355       .  A
C1981      N1986   1.362       .  A
N1982      C2809   1.357       .  A
N1982      C1983   1.359       .  A
C1983      C2116   1.484   1_565  S
C1983      N2812   1.355       .  A
N1984      C2811   1.356       .  A
N1984      C1985   1.359       .  A
C1985      C2039   1.494       .  S
C1985      N1986   1.362       .  A
C1987      N1988   1.362   1_556  A
C1987      N1992   1.356       .  A
N1988      C1989   1.364       .  A
C1989      C2186   1.480       .  S
C1989      N1990   1.357       .  A
N1990      C1991   1.356       .  A
C1991      C2389   1.487       .  S
C1991      N1992   1.358   1_554  A
C1993      C2076   1.479       .  S
C1993      N1994   1.354   1_554  A
C1993      N1998   1.361   1_554  A
N1994      C1995   1.356       .  A
C1995      C2366   1.486       .  S
C1995      N1996   1.357       .  A
N1996      C1997   1.358       .  A
C1997      C2059   1.482       .  S
C1997      N1998   1.364       .  A
C1999      N2828   1.363       .  A
N2000      C2827   1.364       .  A
N2000      C2001   1.362       .  A
N2002      C2831   1.360       .  A
C2003      N2830   1.358   1_545  A
C2003      N2004   1.361       .  A
C2005      N2006   1.363       .  A
C2005      N2010   1.367       .  A
N2006      C2007   1.360       .  A
C2007      N2008   1.356       .  A
N2008      C2009   1.359       .  A
C2009      N2010   1.367       .  A
C2011      N2012   1.367       .  A
C2011      N2016   1.363       .  A
N2012      C2013   1.364       .  A
C2013      N2014   1.359       .  A
N2014      C2015   1.358       .  A
C2015      N2016   1.362       .  A
C2017      N2850   1.364       .  A
N2018      C2019   1.360       .  A
C2019      N2848   1.364       .  A
N2020      C2847   1.366   1_545  A
C2021      N2022   1.364   1_545  A
N2022      C2845   1.364       .  A
C2023      N2024   1.362       .  A
C2023      N2028   1.362       .  A
N2024      C2025   1.360       .  A
C2025      N2026   1.367       .  A
N2026      C2027   1.366       .  A
C2027      N2028   1.360       .  A
C2029      N2030   1.360       .  A
C2029      N2034   1.360       .  A
N2030      C2031   1.360       .  A
C2031      N2032   1.358       .  A
N2032      C2033   1.357       .  A
C2033      N2034   1.361       .  A
C2035      C2036   1.411       .  A
C2035      C2040   1.399       .  A
C2035      H2042   1.083       .  S
C2036      C2037   1.411       .  A
C2037      C2038   1.402       .  A
C2037     Br2044   1.920       .  S
C2038      C2039   1.412       .  A
C2038      H2043   1.082       .  S
C2039      C2040   1.413       .  A
C2040     Br2041   1.923       .  S
C2045      C2046   1.403       .  A
C2045      C2050   1.402       .  A
C2045      H2052   1.083       .  S
C2046      C2047   1.425       .  A
C2047      C2048   1.405       .  A
C2047     Br2054   1.923       .  S
C2048      C2049   1.398       .  A
C2048      H2053   1.084       .  S
C2049      C2050   1.413       .  A
C2055      C2056   1.408       .  A
C2055      C2888   1.399       .  A
C2055      H2062   1.084       .  S
C2056      C2057   1.410       .  A
C2057      C2058   1.403       .  A
C2057     Br2064   1.918       .  S
C2058      C2887   1.408       .  A
C2058      H2063   1.083       .  S
C2059      C2886   1.408   1_545  A
C2059      C2060   1.407   1_545  A
C2060      C2883   1.400       .  A
C2060     Br2061   1.920       .  S
C2065      C2066   1.409       .  A
C2065      C2070   1.397       .  A
C2065      H2072   1.083       .  S
C2066      C2067   1.409       .  A
C2067      C2068   1.398       .  A
C2068      C2069   1.411       .  A
C2068      H2073   1.083       .  S
C2069      C2070   1.411       .  A
C2070     Br2071   1.922       .  S
C2075      C2076   1.397       .  A
C2075      C2080   1.401       .  A
C2075      H2082   1.084       .  S
C2076      C2077   1.412       .  A
C2077      C2078   1.399       .  A
C2077     Br2084   1.920       .  S
C2078      C2079   1.406       .  A
C2078      H2083   1.083       .  S
C2079      C2080   1.425       .  A
C2080     Br2081   1.924       .  S
C2085      C2086   1.405       .  A
C2085      C2090   1.396       .  A
C2085      H2092   1.084       .  S
C2086      C2087   1.405       .  A
C2087      C2088   1.403       .  A
C2087     Br2094   1.919       .  S
C2088      C2089   1.412       .  A
C2088      H2093   1.083       .  S
C2089      C2090   1.410       .  A
C2090     Br2091   1.921       .  S
C2095      C2096   1.403       .  A
C2095      C2100   1.403       .  A
C2095      H2102   1.083       .  S
C2096      C2097   1.403       .  A
C2097      C2098   1.394       .  A
C2097     Br2932   1.919       .  S
C2098      C2099   1.407       .  A
C2098      H2931   1.084       .  S
C2099      C2100   1.415       .  A
C2100     Br2101   1.920       .  S
H2103      C2926   1.084       .  S
Br2104     C2925   1.920       .  S
C2105      C2106   1.406       .  A
C2105      C2110   1.398       .  A
C2105      H2112   1.084       .  S
C2106      C2107   1.411       .  A
C2107      C2108   1.400       .  A
C2107     Br2114   1.920       .  S
C2108      C2109   1.404       .  A
C2108      H2113   1.083       .  S
C2109      C2110   1.408       .  A
C2110     Br2111   1.920       .  S
C2115      C2116   1.408       .  A
C2115      C2120   1.397       .  A
C2115      H2122   1.083       .  S
C2116      C2117   1.417       .  A
C2117      C2118   1.393       .  A
C2117     Br2124   1.921       .  S
C2118      C2119   1.404       .  A
C2118      H2123   1.084       .  S
C2119      C2120   1.411       .  A
C2120     Br2121   1.921       .  S
C2125      C2126   1.405       .  A
C2125      H2132   1.084       .  S
C2126      C2127   1.412       .  A
C2127      C2128   1.396       .  A
C2127     Br2134   1.921       .  S
C2128      C2129   1.400       .  A
C2128      H2133   1.084       .  S
C2130     Br2131   1.915       .  S
C2135      C2136   1.410       .  A
C2135      C2140   1.394       .  A
C2135      H2142   1.084       .  S
C2136      C2137   1.406       .  A
C2137      C2138   1.399       .  A
C2137     Br2144   1.917       .  S
C2138      C2139   1.407       .  A
C2138      H2143   1.084       .  S
C2139      C2140   1.401       .  A
C2140     Br2141   1.918       .  S
C2145      C2146   1.407       .  A
C2145      C2150   1.401       .  A
C2145      H2152   1.084       .  S
C2146      C2147   1.413       .  A
C2147      C2148   1.403       .  A
C2147     Br2154   1.916       .  S
C2148      C2149   1.406       .  A
C2148      H2153   1.083       .  S
C2149      C2150   1.414       .  A
C2150     Br2151   1.918       .  S
C2155      C2156   1.409       .  A
C2155      C2160   1.406       .  A
C2155      H2162   1.082       .  S
C2156      C2157   1.407       .  A
C2157      C2158   1.396       .  A
C2157     Br2164   1.921       .  S
C2158      C2159   1.407       .  A
C2158      H2163   1.082       .  S
C2159      C2160   1.407       .  A
C2160     Br2161   1.914       .  S
C2165      C2166   1.408       .  A
C2165      C2170   1.401       .  A
C2165      H3000   1.084       .  S
C2166      C2167   1.410       .  A
C2167      C2168   1.405       .  A
C2167     Br2174   1.919       .  S
C2168      C2169   1.411       .  A
C2168      H2173   1.083       .  S
C2169      C2170   1.408       .  A
C2170     Br2999   1.912       .  S
Br2171     C2998   1.916       .  S
H2172      C2993   1.084       .  S
C2175      C2176   1.407       .  A
C2175      C2180   1.391       .  A
C2175      H2182   1.079       .  S
C2176      C2177   1.419       .  A
C2177      C2178   1.396       .  A
C2177     Br2184   1.926       .  S
C2178      C2179   1.405       .  A
C2178      H2183   1.083       .  S
C2179      C2180   1.404       .  A
C2180     Br2181   1.919       .  S
C2185      C2186   1.404   1_655  A
C2185      C2190   1.403       .  A
C2186      C2187   1.411       .  A
C2187      C2188   1.397       .  A
C2187     Br2194   1.920       .  S
C2188      C2189   1.404   1_455  A
C2188      H2193   1.084       .  S
C2189      C2190   1.414       .  A
C2190     Br2191   1.921       .  S
C2195      C2196   1.411       .  A
C2195      C2200   1.399       .  A
C2195      H2202   1.083       .  S
C2196      C2197   1.413       .  A
C2197      C2198   1.397       .  A
C2197     Br2204   1.923       .  S
C2198      C2199   1.409       .  A
C2198      H2203   1.083       .  S
C2199      C2200   1.413       .  A
C2200     Br2201   1.922       .  S
C2205      C2206   1.404       .  A
C2206      C2207   1.407       .  A
C2207      C2208   1.400       .  A
C2207     Br2214   1.918       .  S
C2208      C2209   1.406       .  A
C2208      H2213   1.084       .  S
C2210     Br2211   1.921       .  S
C2215      C2216   1.412       .  A
C2215      C2220   1.399       .  A
C2215      H2222   1.083       .  S
C2216      C2217   1.407       .  A
C2217      C2218   1.402       .  A
C2217     Br2224   1.913       .  S
C2218      C2219   1.409       .  A
C2218      H2223   1.083       .  S
C2219      C2220   1.408       .  A
C2220     Br2221   1.920       .  S
C2225      C2230   1.398       .  A
C2225      H2232   1.084       .  S
C2226      C2227   1.408       .  A
C2227      C2228   1.394       .  A
C2227     Br2234   1.920       .  S
C2228      C2229   1.409       .  A
C2228      H2233   1.083       .  S
C2230     Br2231   1.922       .  S
C2235      C2236   1.407       .  A
C2235      C2240   1.406       .  A
C2235      H2242   1.084       .  S
C2237      C2238   1.405       .  A
C2237     Br2244   1.918   1_455  S
C2238      H2243   1.084   1_455  S
C2239      C2240   1.410       .  A
C2240     Br2241   1.918       .  S
C2245      C2246   1.406   1_556  A
C2245      C2250   1.393       .  A
C2245      H2252   1.084       .  S
C2246      C2247   1.405       .  A
C2247      C2248   1.396       .  A
C2247     Br2254   1.919       .  S
C2248      C2249   1.413       .  A
C2248      H2253   1.083       .  S
C2249      C2250   1.414   1_554  A
C2250     Br2251   1.914       .  S
C2255      C2256   1.413       .  A
C2255      C2260   1.401       .  A
C2255      H2262   1.082       .  S
C2256      C2257   1.415       .  A
C2257      C2258   1.395       .  A
C2257     Br2264   1.920       .  S
C2258      C2259   1.403       .  A
C2258      H2263   1.084       .  S
C2259      C2260   1.407       .  A
C2260     Br2261   1.921       .  S
C2265      C2266   1.406       .  A
C2265      C2270   1.398       .  A
C2265      H2272   1.083       .  S
C2266      C2267   1.416       .  A
C2267      C2268   1.395       .  A
C2267     Br2274   1.923       .  S
C2268      C2269   1.404       .  A
C2268      H2273   1.084       .  S
C2269      C2270   1.415       .  A
C2270     Br2271   1.922       .  S
C2275      C3104   1.416       .  A
C2275      C2280   1.409       .  A
C2275      H2282   1.083       .  S
C2276      C3103   1.416       .  A
C2276      C2277   1.414   1_565  A
C2277      C2278   1.394       .  A
C2277     Br2284   1.921       .  S
C2278      C2279   1.407   1_545  A
C2278      H2283   1.083       .  S
C2279      C3108   1.408       .  A
C2280      C3107   1.412       .  A
C2280     Br2281   1.917       .  S
C2285      C2286   1.399   1_455  A
C2285      C2290   1.391       .  A
C2285      H2292   1.081   1_455  S
C2286      C2287   1.412       .  A
C2287      C2288   1.395   1_655  A
C2287     Br2294   1.921       .  S
C2288      C2289   1.406       .  A
C2288      H2293   1.083       .  S
C2289      C2290   1.415       .  A
C2290     Br2291   1.926       .  S
C2295      C2296   1.401       .  A
C2295      C2300   1.401       .  A
C2295      H2302   1.084       .  S
C2296      C2297   1.418       .  A
C2297      C2298   1.398       .  A
C2297     Br2304   1.917       .  S
C2298      C2299   1.403       .  A
C2298      H2303   1.084       .  S
C2299      C2300   1.422       .  A
C2300     Br2301   1.923       .  S
C2305      C2306   1.411       .  A
C2305      C2310   1.402       .  A
C2305      H2312   1.083       .  S
C2306      C2307   1.409       .  A
C2307      C2308   1.399       .  A
C2307     Br2314   1.921       .  S
C2308      C2309   1.409       .  A
C2308      H2313   1.084       .  S
C2309      C2310   1.406       .  A
C2310     Br2311   1.916       .  S
C2315      C2316   1.413       .  A
C2315      C2320   1.398       .  A
C2315      H2322   1.083       .  S
C2316      C2317   1.412       .  A
C2317      C2318   1.400       .  A
C2317     Br2324   1.920       .  S
C2318      C2319   1.406       .  A
C2318      H2323   1.084       .  S
C2319      C2320   1.401       .  A
C2320     Br2321   1.918       .  S
C2325      C2326   1.401       .  A
C2325      C2330   1.395       .  A
C2325      H2332   1.084       .  S
C2326      C2327   1.402       .  A
C2327      C2328   1.396       .  A
C2327     Br2334   1.918       .  S
C2328      C2329   1.413       .  A
C2328      H2333   1.083       .  S
C2329      C2330   1.416       .  A
C2330     Br2331   1.923       .  S
C2335      C2336   1.414       .  A
C2335      C2340   1.399       .  A
C2335      H2342   1.083       .  S
C2336      C2337   1.413       .  A
C2337      C2338   1.397       .  A
C2337     Br2344   1.924       .  S
C2338      C2339   1.408       .  A
C2338      H2343   1.084       .  S
C2339      C2340   1.404       .  A
C2340     Br2341   1.919       .  S
C2345      C2346   1.410       .  A
C2345      C2350   1.400       .  A
C2345      H2352   1.084       .  S
C2346      C2347   1.404       .  A
C2347      C2348   1.395       .  A
C2347     Br2354   1.920       .  S
C2348      C2349   1.410       .  A
C2348      H2353   1.084       .  S
C2349      C2350   1.406       .  A
C2350     Br2351   1.918       .  S
C2355      C2356   1.408       .  A
C2355      C2360   1.392       .  A
C2355      H2362   1.083       .  S
C2356      C2357   1.421       .  A
C2357      C2358   1.404       .  A
C2357     Br2364   1.923       .  S
C2358      C2359   1.399       .  A
C2358      H2363   1.084       .  S
C2359      C2360   1.402       .  A
C2360     Br2361   1.920       .  S
C2365      C2366   1.407       .  A
C2365      C2370   1.396       .  A
C2365      H2372   1.083   1_556  S
C2366      C2367   1.412       .  A
C2367      C2368   1.397       .  A
C2367     Br2374   1.921       .  S
C2368      C3197   1.407       .  A
C2368      H3201   1.083       .  S
C2369      C3196   1.409       .  A
C2369      C3198   1.411       .  A
C2370      C3197   1.412       .  A
C2370     Br2371   1.922   1_556  S
H2373      C3196   1.083       .  S
C2375      C2376   1.405       .  A
C2375      C2380   1.400       .  A
C2375      H2382   1.083       .  S
C2376      C2377   1.414       .  A
C2377      C2378   1.397       .  A
C2377     Br2384   1.922       .  S
C2378      C2379   1.402       .  A
C2378      H2383   1.084       .  S
C2379      C2380   1.409       .  A
C2380     Br2381   1.919       .  S
C2385      C2386   1.407       .  A
C2386      C2387   1.418   1_554  A
C2387      C2388   1.395       .  A
C2387     Br2394   1.927       .  S
C2388      H2393   1.084       .  S
C2389      C2390   1.410       .  A
C2390     Br2391   1.917       .  S
C2395      C2396   1.403       .  A
C2395      C2400   1.398       .  A
C2395      H2402   1.083       .  S
C2396      C2397   1.428       .  A
C2397      C2398   1.403       .  A
C2397     Br2404   1.924       .  S
C2398      C2399   1.396       .  A
C2398      H2403   1.084       .  S
C2399      C2400   1.411       .  A
C2400     Br2401   1.918       .  S
C2405      C2406   1.409       .  A
C2405      C2410   1.397       .  A
C2405      H2412   1.083       .  S
C2406      C2407   1.413       .  A
C2407      C2408   1.397       .  A
C2407     Br2414   1.920       .  S
C2408      C2409   1.405       .  A
C2408      H2413   1.083       .  S
C2409      C2410   1.410       .  A
C2410     Br3239   1.922       .  S
Br2411     C3238   1.923       .  S
C2415      C2416   1.417       .  A
C2415      C2420   1.399       .  A
C2415      H2422   1.083       .  S
C2416      C2417   1.415   1_545  A
C2417      C2418   1.405       .  A
C2417     Br3252   1.920       .  S
C2418      C2419   1.406   1_565  A
C2418      H2423   1.084       .  S
C2419      C2420   1.402       .  A
C2420     Br2421   1.920       .  S
Br2424     C3245   1.919       .  S
C2425      C2426   1.410       .  A
C2425      C2430   1.393       .  A
C2425      H2432   1.083       .  S
C2426      C2427   1.414       .  A
C2427      C2428   1.397       .  A
C2427     Br2434   1.920       .  S
C2428      C2429   1.407       .  A
C2428      H2433   1.084       .  S
C2429      C2430   1.406       .  A
C2430     Br2431   1.919       .  S
C2435      C2436   1.399       .  A
C2435      C2440   1.401       .  A
C2435      H2442   1.083       .  S
C2437      C2438   1.398       .  A
C2437     Br2444   1.921       .  S
C2438      H2443   1.084       .  S
C2439      C2440   1.419       .  A
C2440     Br2441   1.921       .  S
C2445      C2446   1.414       .  A
C2445      C3278   1.402       .  A
C2445      H2452   1.083   1_545  S
C2446      C2447   1.413       .  A
C2447      C2448   1.399       .  A
C2447     Br2454   1.922       .  S
C2448      C2449   1.409       .  A
C2448      H2453   1.082       .  S
C2449      C2529   1.491       .  S
C2449      C3278   1.410       .  A
C2450      C3273   1.399       .  A
C2450      C3277   1.409       .  A
C2450     Br2451   1.922       .  S
C2455      C2460   1.401   1_455  A
C2455      H2462   1.084       .  S
C2457      C2458   1.397       .  A
C2458      C2459   1.407       .  A
C2458      H2463   1.084       .  S
C2459      C2460   1.408       .  A
C2460     Br2461   1.919   1_655  S
C2465      C2466   1.399       .  A
C2465      C2470   1.405       .  A
C2465      H2472   1.084       .  S
C2466      C2467   1.413   1_545  A
C2467      C2468   1.400       .  A
C2467     Br3302   1.922       .  S
C2468      C2469   1.404   1_565  A
C2468      H2473   1.084       .  S
C2469      C2470   1.424       .  A
C2470     Br2471   1.922       .  S
Br2474     C3295   1.922       .  S
C2475      C2476   1.412   1_455  A
C2475      C2480   1.400   1_455  A
C2475      H2482   1.083       .  S
C2476      C2477   1.410       .  A
C2477      C2478   1.396       .  A
C2477     Br2484   1.922       .  S
C2478      C2479   1.406       .  A
C2478      H2483   1.083       .  S
C2479      C2480   1.403       .  A
C2480     Br2481   1.918   1_655  S
O2485     Ni2491   1.934       .  S
O2485      C2506   1.272       .  A
O2486     Ni2509   1.938       .  S
O2486      C2495   1.274       .  A
O2487     Ni2491   1.905       .  S
O2487     Ni2509   1.901       .  S
O2487     Ni2503   1.892       .  S
O2487      H2510   0.967       .  S
C2488      O2505   1.265       .  A
C2488      O2497   1.267       .  A
C2488      C3274   1.496       .  S
O2489     Ni2508   1.914       .  S
O2489      C2495   1.267       .  A
O2490     Ni2508   1.903       .  S
O2490      C2492   1.274       .  A
Ni2491     O2494   1.918       .  S
Ni2491     O2496   1.916       .  S
C2492      O2502   1.283       .  A
C2492      C3287   1.482       .  S
O2493     Ni2509   1.935       .  S
O2493      C2499   1.284       .  A
O2494      C2499   1.277       .  A
C2495      C2827   1.481       .  S
O2496      C2498   1.270       .  A
O2497     Ni2508   1.923       .  S
C2498      O2504   1.276       .  A
C2498      C3297   1.496       .  S
C2499      C3307   1.479       .  S
H2500      O2501   0.966       .  S
O2501     Ni2509   1.960       .  S
O2501     Ni2503   1.933       .  S
O2501     Ni2508   1.921       .  S
O2502     Ni2503   1.951       .  S
Ni2503     O2507   1.924       .  S
Ni2503     O2505   1.915       .  S
O2504     Ni2509   1.940       .  S
C2506      O2507   1.269       .  A
C2506      C2857   1.476       .  S
C2511      C3264   1.474       .  S
C2511      N2512   1.363       .  A
N2512      C2513   1.367       .  A
C2513      C3304   1.484       .  S
N2514      C2515   1.354       .  A
C2515      C3254   1.481       .  S
C2515      N2516   1.352       .  A
C2517      C3247   1.486       .  S
C2517      N2518   1.369       .  A
N2518      C2519   1.365       .  A
C2519      C3294   1.490       .  S
C2519      N2520   1.356       .  A
C2521      C3237   1.483       .  S
C2521      N2522   1.357       .  A
C2523      C3227   1.475       .  S
C2523      N2524   1.350       .  A
C2523      N2528   1.359   1_556  A
N2524      C2525   1.349   1_556  A
C2525      C3214   1.487       .  S
C2525      N2526   1.358       .  A
N2526      C2527   1.361       .  A
C2527      C3284   1.480       .  S
C2527      N2528   1.366       .  A
C2529      N2534   1.362   1_554  A
C2531      C3197   1.484       .  S
C2531      N2532   1.355       .  A
N2532      C2533   1.356       .  A
C2533      C3204   1.475       .  S
C2533      N2534   1.364       .  A
O2535     Ni2541   1.919       .  S
O2535      C2556   1.266       .  A
O2536     Ni2559   1.933       .  S
O2536      C2545   1.275       .  A
O2537     Ni2541   1.905       .  S
O2537     Ni2559   1.921       .  S
O2537     Ni2553   1.912       .  S
O2537      H2560   0.964       .  S
C2538      O2555   1.271       .  A
C2538      O2547   1.278       .  A
C2538      C3164   1.491       .  S
O2539     Ni2558   1.940       .  S
O2539      C2545   1.274       .  A
O2540     Ni2558   1.906       .  S
O2540      C2542   1.269       .  A
Ni2541     O2544   1.909       .  S
Ni2541     O2546   1.895       .  S
C2542      O2552   1.276       .  A
C2542      C3184   1.483       .  S
O2543     Ni2559   1.921       .  S
O2543      C2549   1.275       .  A
O2544      C2549   1.273       .  A
C2545      C2833   1.484       .  S
O2546      C2548   1.267       .  A
O2547     Ni2558   1.940       .  S
C2548      O2554   1.275       .  A
C2548      C3157   1.463       .  S
C2549      C3177   1.462       .  S
H2550      O2551   0.956       .  S
O2551     Ni2559   1.913       .  S
O2551     Ni2553   1.914       .  S
O2551     Ni2558   1.910       .  S
O2552     Ni2553   1.938       .  S
Ni2553     O2557   1.934       .  S
Ni2553     O2555   1.901       .  S
O2554     Ni2559   1.926       .  S
C2556      O2557   1.271       .  A
C2556      C2839   1.474       .  S
O2561     Ni2567   1.911       .  S
O2561      C2582   1.268       .  A
O2562     Ni2585   1.940       .  S
O2562      C2571   1.272       .  A
O2563     Ni2567   1.922       .  S
O2563     Ni2585   1.925       .  S
O2563     Ni2579   1.948       .  S
O2563      H2586   0.966       .  S
C2564      O2581   1.283       .  A
C2564      O2573   1.273       .  A
C2564      C3207   1.484       .  S
O2565     Ni2584   1.913       .  S
O2565      C2571   1.264       .  A
O2566     Ni2584   1.891       .  S
O2566      C2568   1.268       .  A
Ni2567     O2570   1.923       .  S
Ni2567     O2572   1.912       .  S
C2568      O2578   1.281       .  A
C2568      C3144   1.485       .  S
O2569     Ni2585   1.907       .  S
O2569      C2575   1.267       .  A
O2570      C2575   1.265       .  A
C2571      C2847   1.476       .  S
O2572      C2574   1.276       .  A
O2573     Ni2584   1.903       .  S
C2574      O2580   1.280       .  A
C2574      C3134   1.491       .  S
C2575      C3127   1.487       .  S
H2576      O2577   0.966       .  S
O2577     Ni2585   1.904       .  S
O2577     Ni2579   1.912       .  S
O2577     Ni2584   1.898       .  S
O2578     Ni2579   1.942       .  S
Ni2579     O2583   1.957       .  S
Ni2579     O2581   1.939       .  S
O2580     Ni2585   1.948       .  S
C2582      O2583   1.283       .  A
C2582      C2853   1.489       .  S
C2587      C3124   1.483       .  S
C2587      N2588   1.354       .  A
C2587      N2592   1.362       .  A
N2588      C2589   1.357       .  A
C2589      C3114   1.483       .  S
C2589      N2590   1.351       .  A
N2590      C2591   1.356       .  A
C2591      C3174   1.483       .  S
C2591      N2592   1.362       .  A
C2593      C3107   1.500       .  S
C2593      N2598   1.357       .  A
N2594      C2595   1.367       .  A
C2595      C3137   1.475       .  S
N2596      C2597   1.354       .  A
C2597      C3094   1.487       .  S
C2597      N2598   1.349       .  A
C2599      C3084   1.488       .  S
C2599      N2600   1.362       .  A
C2599      N2604   1.368       .  A
N2600      C2601   1.356       .  A
C2601      C3074   1.484       .  S
C2601      N2602   1.348   1_554  A
N2602      C2603   1.349       .  A
C2603      C3147   1.472       .  S
C2603      N2604   1.361   1_556  A
O2605     Ni2611   1.937       .  S
O2605      C2626   1.273       .  A
O2606     Ni2629   1.953       .  S
O2606      C2615   1.278       .  A
O2607     Ni2611   1.904       .  S
O2607     Ni2623   1.928       .  S
O2607      H2630   0.966       .  S
C2608      O2625   1.282       .  A
C2608      C3044   1.493       .  S
O2609     Ni2628   1.913       .  S
O2609      C2615   1.263       .  A
O2610     Ni2628   1.900       .  S
O2610      C2612   1.261       .  A
Ni2611     O2614   1.935       .  S
Ni2611     O2616   1.899       .  S
C2612      C3267   1.485       .  S
O2613     Ni2629   1.910       .  S
O2613      C2619   1.275       .  A
C2615      C2837   1.481       .  S
O2616      C2618   1.267       .  A
O2617     Ni2628   1.922       .  S
C2618      C3067   1.478       .  S
C2619      C3054   1.487       .  S
H2620      O2621   0.967       .  S
O2621     Ni2629   1.910       .  S
O2621     Ni2628   1.905       .  S
O2622     Ni2623   1.941       .  S
Ni2623     O2627   1.926       .  S
Ni2623     O2625   1.923       .  S
O2624     Ni2629   1.953       .  S
C2626      O2627   1.272       .  A
C2626      C2843   1.478       .  S
O2631     Ni2637   1.925       .  S
O2631      C2652   1.273       .  A
O2632     Ni2655   1.929       .  S
O2632      C2641   1.269       .  A
O2633     Ni2637   1.917       .  S
O2633     Ni2655   1.915       .  S
O2633     Ni2649   1.937       .  S
O2633      H2656   0.966       .  S
C2634      O2651   1.284       .  A
C2634      O2643   1.275       .  A
C2634      C3017   1.484       .  S
O2635     Ni2654   1.923       .  S
O2635      C2641   1.268       .  A
O2636     Ni2654   1.895       .  S
O2636      C2638   1.269       .  A
Ni2637     O2640   1.937       .  S
Ni2637     O2642   1.913       .  S
C2638      O2648   1.280       .  A
C2638      C3087   1.489       .  S
O2639     Ni2655   1.908       .  S
O2639      C2645   1.269       .  A
O2640      C2645   1.274       .  A
C2641      C2829   1.474       .  S
O2642      C2644   1.272       .  A
O2643     Ni2654   1.903       .  S
C2644      O2650   1.278       .  A
C2644      C3034   1.487       .  S
C2645      C3024   1.486       .  S
H2646      O2647   0.966       .  S
O2647     Ni2655   1.907       .  S
O2647     Ni2649   1.912       .  S
O2647     Ni2654   1.890       .  S
O2648     Ni2649   1.943       .  S
Ni2649     O2653   1.943       .  S
Ni2649     O2651   1.949       .  S
O2650     Ni2655   1.936       .  S
C2652      O2653   1.280       .  A
C2652      C2859   1.482       .  S
C2657      C3027   1.476       .  S
C2657      N2658   1.357       .  A
C2657      N2662   1.359       .  A
N2658      C2659   1.361       .  A
C2659      C3234   1.485       .  S
C2659      N2660   1.356       .  A
N2660      C2661   1.352       .  A
C2661      C3187   1.466       .  S
C2661      N2662   1.358       .  A
C2663      C3047   1.489       .  S
C2663      N2668   1.351       .  A
C2665      N2666   1.358       .  A
N2666      C2667   1.354       .  A
C2667      C3004   1.485       .  S
C2667      N2668   1.352       .  A
O2669     Ni2675   1.931       .  S
O2669      C2690   1.271       .  A
O2670     Ni2693   1.935       .  S
O2670      C2679   1.276       .  A
O2671     Ni2675   1.900       .  S
O2671     Ni2687   1.926       .  S
O2671      H2694   0.965       .  S
C2672      O2689   1.282       .  A
C2672      C3104   1.498       .  S
O2673     Ni2692   1.936       .  S
O2673      C2679   1.272       .  A
O2674     Ni2692   1.913       .  S
O2674      C2676   1.267       .  A
Ni2675     O2678   1.924       .  S
Ni2675     O2680   1.903       .  S
C2676      C2987   1.472       .  S
O2677     Ni2693   1.928       .  S
O2677      C2683   1.281   1_565  A
C2679      C2841   1.481       .  S
O2680      C2682   1.270       .  A
O2681     Ni2692   1.941       .  S
C2682      C3244   1.495       .  S
C2683      C2997   1.483   1_545  S
H2684      O2685   0.962       .  S
O2685     Ni2693   1.912       .  S
O2685     Ni2692   1.906       .  S
O2686     Ni2687   1.928       .  S
Ni2687     O2691   1.935       .  S
Ni2687     O2689   1.922       .  S
O2688     Ni2693   1.944       .  S
C2690      O2691   1.272       .  A
C2690      C2835   1.480       .  S
O2695     Ni2701   1.923       .  S
O2695      C2716   1.271       .  A
O2696     Ni2719   1.949       .  S
O2696      C2705   1.275       .  A
O2697     Ni2701   1.899       .  S
O2697     Ni2719   1.900       .  S
O2697     Ni2713   1.921       .  S
O2697      H2720   0.967       .  S
C2698      O2715   1.283       .  A
C2698      O2707   1.278       .  A
C2698      C2964   1.487       .  S
O2699     Ni2718   1.925       .  S
O2699      C2705   1.270       .  A
O2700     Ni2718   1.915       .  S
O2700      C2702   1.272       .  A
Ni2701     O2704   1.914       .  S
Ni2701     O2706   1.923       .  S
C2702      O2712   1.273       .  A
C2702      C2954   1.488       .  S
O2703     Ni2719   1.946       .  S
O2703      C2709   1.290       .  A
O2704      C2709   1.276       .  A
C2705      C2855   1.488       .  S
O2706      C2708   1.270       .  A
O2707     Ni2718   1.914       .  S
C2708      O2714   1.272       .  A
C2708      C2974   1.496       .  S
C2709      C3224   1.489       .  S
H2710      O2711   0.966       .  S
O2711     Ni2719   1.924       .  S
O2711     Ni2713   1.910       .  S
O2711     Ni2718   1.900       .  S
O2712     Ni2713   1.926       .  S
Ni2713     O2717   1.940       .  S
Ni2713     O2715   1.927       .  S
O2714     Ni2719   1.924       .  S
C2716      O2717   1.274       .  A
C2716      C2849   1.483       .  S
C2721      C2967   1.469       .  S
C2721      N2722   1.359       .  A
C2721      N2726   1.350       .  A
N2722      C2723   1.362       .  A
C2723      C3154   1.464       .  S
C2723      N2724   1.356       .  A
N2724      C2725   1.354       .  A
C2725      C2947   1.484       .  S
C2725      N2726   1.355       .  A
C2727      C3057   1.497       .  S
C2727      N2728   1.362       .  A
N2728      C2729   1.359       .  A
C2729      C3097   1.487       .  S
C2729      N2730   1.349       .  A
N2730      C2731   1.352       .  A
O2733     Ni2739   1.929       .  S
O2733      C2754   1.270       .  A
O2734     Ni2757   1.942       .  S
O2734      C2743   1.275       .  A
O2735     Ni2739   1.900       .  S
O2735     Ni2757   1.911       .  S
O2735     Ni2751   1.916       .  S
O2735      H2758   0.966       .  S
C2736      O2753   1.282       .  A
C2736      O2745   1.274       .  A
C2736      C2937   1.470       .  S
O2737     Ni2756   1.912       .  S
O2737      C2743   1.266       .  A
O2738     Ni2756   1.905       .  S
O2738      C2740   1.268       .  A
Ni2739     O2742   1.922       .  S
Ni2739     O2744   1.907       .  S
C2740      O2750   1.274       .  A
C2740      C2924   1.473       .  S
O2741     Ni2757   1.924       .  S
O2741      C2747   1.283       .  A
O2742      C2747   1.274       .  A
C2743      C2861   1.472       .  S
O2744      C2746   1.269       .  A
O2745     Ni2756   1.904       .  S
C2746      O2752   1.271       .  A
C2746      C2917   1.471       .  S
C2747      C2907   1.493       .  S
H2748      O2749   0.966       .  S
O2749     Ni2757   1.917       .  S
O2749     Ni2751   1.904       .  S
O2749     Ni2756   1.885       .  S
O2750     Ni2751   1.930       .  S
Ni2751     O2755   1.928       .  S
Ni2751     O2753   1.938       .  S
O2752     Ni2757   1.922       .  S
C2754      O2755   1.272       .  A
C2754      C2831   1.470       .  S
C2759      C2934   1.480       .  S
C2759      N2760   1.357       .  A
C2759      N2764   1.363       .  A
N2760      C2761   1.355       .  A
C2761      C3257   1.482       .  S
C2761      N2762   1.353       .  A
N2762      C2763   1.353       .  A
C2763      C3167   1.477       .  S
C2763      N2764   1.360       .  A
C2765      C2994   1.479       .  S
C2765      N2766   1.354       .  A
N2766      C2767   1.352       .  A
C2767      C3007   1.481       .  S
C2767      N2768   1.353       .  A
C2769      C2927   1.468       .  S
C2769      N2770   1.364       .  A
C2771      C2977   1.493       .  S
C2771      N2772   1.365       .  A
C2771      N2776   1.366       .  A
N2772      C2773   1.360       .  A
C2773      C3077   1.488       .  S
C2773      N2774   1.351   1_556  A
N2774      C2775   1.350       .  A
C2775      C2914   1.482       .  S
C2775      N2776   1.362   1_554  A
O2777     Ni2783   1.921       .  S
O2777      C2798   1.269       .  A
O2778     Ni2801   1.923       .  S
O2778      C2787   1.269       .  A
O2779     Ni2783   1.919       .  S
O2779     Ni2801   1.918       .  S
O2779     Ni2795   1.925       .  S
O2779      H2802   0.966       .  S
C2780      O2797   1.270       .  A
C2780      O2789   1.270       .  A
C2780      C2897   1.486       .  S
O2781     Ni2800   1.918       .  S
O2781      C2787   1.267       .  A
O2782     Ni2800   1.900       .  S
O2782      C2784   1.270       .  A
Ni2783     O2786   1.932       .  S
Ni2783     O2788   1.906       .  S
C2784      O2794   1.279       .  A
C2784      C2884   1.488       .  S
O2785     Ni2801   1.903       .  S
O2785      C2791   1.267       .  A
O2786      C2791   1.272       .  A
C2787      C2845   1.471       .  S
O2788      C2790   1.268       .  A
O2789     Ni2800   1.916       .  S
C2790      O2796   1.285       .  A
C2790      C2874   1.500       .  S
C2791      C2864   1.489       .  S
H2792      O2793   0.966       .  S
O2793     Ni2801   1.922       .  S
O2793     Ni2795   1.924       .  S
O2793     Ni2800   1.928       .  S
O2794     Ni2795   1.951       .  S
Ni2795     O2799   1.925       .  S
Ni2795     O2797   1.910       .  S
O2796     Ni2801   1.975       .  S
C2798      O2799   1.270       .  A
C2798      C2851   1.473       .  S
C2803      C3064   1.487       .  S
C2803      N2804   1.374       .  A
N2804      C2805   1.369       .  A
C2805      C2877   1.484       .  S
C2805      N2806   1.349       .  A
C2807      C3117   1.483       .  S
C2807      N2808   1.356       .  A
C2809      C2984   1.476       .  S
C2809      N2814   1.358       .  A
N2810      C2811   1.357       .  A
C2811      C2944   1.486       .  S
N2812      C2813   1.357       .  A
C2813      C2867   1.488       .  S
C2813      N2814   1.356       .  A
C2815      N2816   1.361   1_556  A
C2815      N2820   1.355       .  A
N2816      C2817   1.363       .  A
C2817      C3014   1.478       .  S
C2817      N2818   1.359       .  A
N2818      C2819   1.359       .  A
C2819      C3217   1.488       .  S
C2819      N2820   1.357   1_554  A
C2821      C2904   1.475   1_556  S
C2821      N2822   1.352       .  A
C2821      N2826   1.358       .  A
N2822      C2823   1.356       .  A
C2823      C3194   1.487       .  S
C2823      N2824   1.360       .  A
N2824      C2825   1.360       .  A
C2825      C2887   1.483       .  S
C2825      N2826   1.361       .  A
N2828      C2829   1.360       .  A
C2831      N2832   1.361       .  A
C2833      N2834   1.362       .  A
C2833      N2838   1.368       .  A
N2834      C2835   1.361       .  A
C2835      N2836   1.360       .  A
N2836      C2837   1.363       .  A
C2837      N2838   1.368       .  A
C2839      N2840   1.363       .  A
C2839      N2844   1.362       .  A
N2840      C2841   1.362       .  A
C2841      N2842   1.364       .  A
N2842      C2843   1.363       .  A
C2843      N2844   1.360       .  A
N2846      C2847   1.360       .  A
C2849      N2850   1.363       .  A
C2851      N2852   1.363       .  A
C2851      N2856   1.360       .  A
N2852      C2853   1.363       .  A
C2853      N2854   1.371       .  A
N2854      C2855   1.368       .  A
C2855      N2856   1.359       .  A
C2857      N2858   1.364       .  A
C2857      N2862   1.359       .  A
N2858      C2859   1.364       .  A
C2859      N2860   1.363       .  A
N2860      C2861   1.363       .  A
C2861      N2862   1.360       .  A
C2863      C2864   1.410       .  A
C2863      C2868   1.398       .  A
C2863      H2870   1.083       .  S
C2864      C2865   1.413       .  A
C2865      C2866   1.398       .  A
C2865     Br2872   1.922   1_565  S
C2866      C2867   1.408       .  A
C2866      H2871   1.083   1_565  S
C2867      C2868   1.413       .  A
C2868     Br2869   1.923       .  S
C2873      C2874   1.404       .  A
C2873      C2878   1.405       .  A
C2873      H2880   1.083       .  S
C2874      C2875   1.425       .  A
C2875      C2876   1.406       .  A
C2875     Br2882   1.921       .  S
C2876      C2877   1.397       .  A
C2876      H2881   1.084       .  S
C2877      C2878   1.412       .  A
C2883      C2884   1.410       .  A
C2883      H2890   1.083       .  S
C2884      C2885   1.411       .  A
C2885      C2886   1.403       .  A
C2885     Br2892   1.919       .  S
C2886      H2891   1.084   1_565  S
C2887      C2888   1.410       .  A
C2888     Br2889   1.922       .  S
C2893      C2894   1.407       .  A
C2893      C2898   1.400       .  A
C2893      H2900   1.081       .  S
C2894      C2895   1.407       .  A
C2895      C2896   1.398       .  A
C2896      C2897   1.411       .  A
C2896      H2901   1.083       .  S
C2897      C2898   1.410       .  A
C2898     Br2899   1.922       .  S
C2903      C2904   1.394       .  A
C2903      C2908   1.398       .  A
C2903      H2910   1.084       .  S
C2904      C2905   1.410       .  A
C2905      C2906   1.399       .  A
C2905     Br2912   1.917       .  S
C2906      C2907   1.406       .  A
C2906      H2911   1.083       .  S
C2907      C2908   1.427       .  A
C2908     Br2909   1.925       .  S
C2913      C2914   1.410       .  A
C2913      C2918   1.396       .  A
C2913      H2920   1.083       .  S
C2914      C2915   1.410       .  A
C2915      C2916   1.400       .  A
C2915     Br2922   1.918       .  S
C2916      C2917   1.405       .  A
C2916      H2921   1.083       .  S
C2917      C2918   1.405       .  A
C2918     Br2919   1.921       .  S
C2923      C2924   1.404       .  A
C2923      C2928   1.401       .  A
C2923      H2930   1.084       .  S
C2924      C2925   1.411       .  A
C2925      C2926   1.397       .  A
C2926      C2927   1.400       .  A
C2927      C2928   1.409       .  A
C2928     Br2929   1.919       .  S
C2933      C2934   1.406       .  A
C2933      C2938   1.395       .  A
C2933      H2940   1.083       .  S
C2934      C2935   1.414       .  A
C2935      C2936   1.400       .  A
C2935     Br2942   1.920       .  S
C2936      C2937   1.402       .  A
C2936      H2941   1.084       .  S
C2937      C2938   1.407       .  A
C2938     Br2939   1.921       .  S
C2943      C2944   1.411       .  A
C2943      C2948   1.397       .  A
C2943      H2950   1.083       .  S
C2944      C2945   1.420       .  A
C2945      C2946   1.394       .  A
C2945     Br2952   1.922       .  S
C2946      C2947   1.402       .  A
C2946      H2951   1.084       .  S
C2947      C2948   1.408       .  A
C2948     Br2949   1.920       .  S
C2953      C2954   1.411       .  A
C2953      H2960   1.083       .  S
C2954      C2955   1.413       .  A
C2955      C2956   1.401       .  A
C2955     Br2962   1.921       .  S
C2956      C2957   1.405       .  A
C2956      H2961   1.084       .  S
C2958     Br2959   1.919       .  S
C2963      C2964   1.414       .  A
C2963      C2968   1.396       .  A
C2963      H2970   1.083       .  S
C2964      C2965   1.410       .  A
C2965      C2966   1.399       .  A
C2965     Br2972   1.916       .  S
C2966      C2967   1.406       .  A
C2966      H2971   1.084       .  S
C2967      C2968   1.400       .  A
C2968     Br2969   1.919       .  S
C2973      C2974   1.407       .  A
C2973      C2978   1.402       .  A
C2973      H2980   1.083       .  S
C2974      C2975   1.419       .  A
C2975      C2976   1.402       .  A
C2975     Br2982   1.917       .  S
C2976      C2977   1.404       .  A
C2976      H2981   1.082       .  S
C2977      C2978   1.412       .  A
C2978     Br2979   1.918       .  S
C2983      C2984   1.409       .  A
C2983      C2988   1.404       .  A
C2983      H2990   1.083       .  S
C2984      C2985   1.411       .  A
C2985      C2986   1.391       .  A
C2985     Br2992   1.924   1_565  S
C2986      C2987   1.403       .  A
C2986      H2991   1.084       .  S
C2987      C2988   1.405       .  A
C2988     Br2989   1.915       .  S
C2993      C2994   1.407       .  A
C2993      C2998   1.397       .  A
C2994      C2995   1.406   1_565  A
C2995      C2996   1.402       .  A
C2995     Br3002   1.918       .  S
C2996      C2997   1.410   1_545  A
C2996      H3001   1.083       .  S
C2997      C2998   1.407       .  A
C3003      C3004   1.409       .  A
C3003      C3008   1.390       .  A
C3003      H3010   1.081       .  S
C3004      C3005   1.415       .  A
C3005      C3006   1.398       .  A
C3005     Br3012   1.920       .  S
C3006      C3007   1.406       .  A
C3006      H3011   1.083       .  S
C3007      C3008   1.406       .  A
C3008     Br3009   1.923       .  S
C3013      C3014   1.409       .  A
C3013      C3018   1.407   1_455  A
C3014      C3015   1.404       .  A
C3015      C3016   1.393       .  A
C3015     Br3022   1.917       .  S
C3016      C3017   1.408   1_455  A
C3016      H3021   1.084       .  S
C3017      C3018   1.409       .  A
C3018     Br3019   1.917       .  S
C3023      C3024   1.410       .  A
C3023      C3028   1.396       .  A
C3023      H3030   1.084       .  S
C3024      C3025   1.412       .  A
C3025      C3026   1.404       .  A
C3025     Br3032   1.920       .  S
C3026      C3027   1.407       .  A
C3026      H3031   1.083       .  S
C3027      C3028   1.404       .  A
C3028     Br3029   1.921       .  S
C3033      C3034   1.405       .  A
C3034      C3035   1.420       .  A
C3035      C3036   1.406       .  A
C3035     Br3042   1.921       .  S
C3036      C3037   1.402       .  A
C3036      H3041   1.084       .  S
C3038     Br3039   1.922       .  S
C3043      C3044   1.415       .  A
C3043      C3048   1.400       .  A
C3043      H3050   1.082       .  S
C3044      C3045   1.409       .  A
C3045      C3046   1.399       .  A
C3045     Br3052   1.919       .  S
C3046      C3047   1.412       .  A
C3046      H3051   1.083       .  S
C3047      C3048   1.407       .  A
C3048     Br3049   1.921       .  S
C3053      C3058   1.405       .  A
C3053      H3060   1.083       .  S
C3054      C3055   1.409       .  A
C3055      C3056   1.397       .  A
C3055     Br3062   1.922       .  S
C3056      C3057   1.410       .  A
C3056      H3061   1.083       .  S
C3058     Br3059   1.919       .  S
C3063      C3064   1.410       .  A
C3063      C3068   1.404       .  A
C3063      H3070   1.084       .  S
C3065      C3066   1.405       .  A
C3065     Br3072   1.920   1_455  S
C3066      H3071   1.084   1_455  S
C3067      C3068   1.407       .  A
C3068     Br3069   1.919       .  S
C3073      C3074   1.409   1_556  A
C3073      C3078   1.395       .  A
C3073      H3080   1.084       .  S
C3074      C3075   1.406       .  A
C3075      C3076   1.395       .  A
C3075     Br3082   1.920       .  S
C3076      C3077   1.412   1_554  A
C3076      H3081   1.083       .  S
C3077      C3078   1.413       .  A
C3078     Br3079   1.918       .  S
C3083      C3084   1.412       .  A
C3083      C3088   1.402       .  A
C3083      H3090   1.083       .  S
C3084      C3085   1.409       .  A
C3085      C3086   1.396       .  A
C3085     Br3092   1.919       .  S
C3086      C3087   1.411       .  A
C3086      H3091   1.083       .  S
C3087      C3088   1.409       .  A
C3088     Br3089   1.920       .  S
C3093      C3094   1.404       .  A
C3093      C3098   1.397       .  A
C3093      H3100   1.083       .  S
C3094      C3095   1.412       .  A
C3095      C3096   1.397       .  A
C3095     Br3102   1.920       .  S
C3096      C3097   1.406       .  A
C3096      H3101   1.083       .  S
C3097      C3098   1.419       .  A
C3098     Br3099   1.923       .  S
C3103      C3108   1.406       .  A
C3103      H3110   1.083       .  S
C3104      C3105   1.413       .  A
C3105      C3106   1.392       .  A
C3105     Br3112   1.924       .  S
C3106      C3107   1.409       .  A
C3106      H3111   1.081       .  S
C3108     Br3109   1.918       .  S
C3113      C3114   1.399       .  A
C3113      C3118   1.389   1_655  A
C3113      H3120   1.083       .  S
C3114      C3115   1.412       .  A
C3115      C3116   1.398   1_655  A
C3115     Br3122   1.920       .  S
C3116      C3117   1.408       .  A
C3116      H3121   1.083       .  S
C3117      C3118   1.419       .  A
C3118     Br3119   1.924       .  S
C3123      C3124   1.399       .  A
C3123      C3128   1.398       .  A
C3123      H3130   1.084       .  S
C3124      C3125   1.416       .  A
C3125      C3126   1.398       .  A
C3125     Br3132   1.918       .  S
C3126      C3127   1.402       .  A
C3126      H3131   1.084       .  S
C3127      C3128   1.422       .  A
C3128     Br3129   1.925       .  S
C3133      C3134   1.413       .  A
C3133      C3138   1.404       .  A
C3133      H3140   1.083       .  S
C3134      C3135   1.418       .  A
C3135      C3136   1.395       .  A
C3135     Br3142   1.924       .  S
C3136      C3137   1.400       .  A
C3136      H3141   1.084   1_565  S
C3137      C3138   1.404       .  A
C3138     Br3139   1.917       .  S
C3143      C3144   1.415       .  A
C3143      C3148   1.399       .  A
C3143      H3150   1.083       .  S
C3144      C3145   1.407       .  A
C3145      C3146   1.396       .  A
C3145     Br3152   1.920       .  S
C3146      C3147   1.408       .  A
C3146      H3151   1.084       .  S
C3147      C3148   1.401       .  A
C3148     Br3149   1.916       .  S
C3153      C3154   1.402       .  A
C3153      C3158   1.396       .  A
C3153      H3160   1.084       .  S
C3154      C3155   1.409       .  A
C3155      C3156   1.395       .  A
C3155     Br3162   1.919       .  S
C3156      C3157   1.401       .  A
C3156      H3161   1.084       .  S
C3157      C3158   1.408       .  A
C3158     Br3159   1.920       .  S
C3163      C3164   1.413       .  A
C3163      C3168   1.401       .  A
C3163      H3170   1.083       .  S
C3164      C3165   1.416       .  A
C3165      C3166   1.395       .  A
C3165     Br3172   1.925       .  S
C3166      C3167   1.405       .  A
C3166      H3171   1.084       .  S
C3167      C3168   1.405       .  A
C3168     Br3169   1.919       .  S
C3173      C3174   1.409       .  A
C3173      C3178   1.392       .  A
C3173      H3180   1.082       .  S
C3174      C3175   1.416       .  A
C3175      C3176   1.401       .  A
C3175     Br3182   1.922       .  S
C3176      C3177   1.402       .  A
C3176      H3181   1.084       .  S
C3177      C3178   1.399       .  A
C3178     Br3179   1.919       .  S
C3183      C3184   1.406       .  A
C3183      C3188   1.394       .  A
C3183      H3190   1.083       .  S
C3184      C3185   1.417       .  A
C3185      C3186   1.403       .  A
C3185     Br3192   1.921       .  S
C3186      C3187   1.400       .  A
C3186      H3191   1.084       .  S
C3187      C3188   1.404       .  A
C3188     Br3189   1.921       .  S
C3193      C3194   1.408       .  A
C3193      C3198   1.397       .  A
C3193      H3200   1.083   1_556  S
C3194      C3195   1.409       .  A
C3195      C3196   1.397       .  A
C3195     Br3202   1.920       .  S
C3198     Br3199   1.921   1_556  S
C3203      C3204   1.403   1_565  A
C3203      C3208   1.403       .  A
C3203      H3210   1.084       .  S
C3204      C3205   1.407       .  A
C3205      C3206   1.397       .  A
C3205     Br3212   1.923       .  S
C3206      C3207   1.409   1_545  A
C3206      H3211   1.084       .  S
C3207      C3208   1.414       .  A
C3208     Br3209   1.920       .  S
C3213      C3214   1.407       .  A
C3214      C3215   1.419   1_554  A
C3215      C3216   1.395       .  A
C3215     Br3222   1.925       .  S
C3216      H3221   1.084       .  S
C3217      C3218   1.410       .  A
C3218     Br3219   1.918       .  S
C3223      C3224   1.401       .  A
C3223      C3228   1.394       .  A
C3223      H3230   1.084       .  S
C3224      C3225   1.425       .  A
C3225      C3226   1.404       .  A
C3225     Br3232   1.923       .  S
C3226      C3227   1.397       .  A
C3226      H3231   1.083       .  S
C3227      C3228   1.409       .  A
C3228     Br3229   1.917       .  S
C3233      C3234   1.405       .  A
C3233      C3238   1.396   1_565  A
C3233      H3240   1.083       .  S
C3234      C3235   1.413       .  A
C3235      C3236   1.397       .  A
C3235     Br3242   1.922       .  S
C3236      C3237   1.405   1_565  A
C3236      H3241   1.083   1_565  S
C3237      C3238   1.414       .  A
C3243      C3244   1.414       .  A
C3243      C3248   1.398       .  A
C3243      H3250   1.083       .  S
C3244      C3245   1.411       .  A
C3245      C3246   1.407       .  A
C3246      C3247   1.412       .  A
C3246      H3251   1.084       .  S
C3247      C3248   1.404       .  A
C3248     Br3249   1.919       .  S
C3253      C3254   1.409       .  A
C3253      C3258   1.394       .  A
C3253      H3260   1.083       .  S
C3254      C3255   1.417       .  A
C3255      C3256   1.397       .  A
C3255     Br3262   1.921       .  S
C3256      C3257   1.405       .  A
C3256      H3261   1.084       .  S
C3257      C3258   1.405       .  A
C3258     Br3259   1.917       .  S
C3263      C3264   1.398       .  A
C3263      C3268   1.402       .  A
C3263      H3270   1.084       .  S
C3265      C3266   1.400       .  A
C3265     Br3272   1.921       .  S
C3266      H3271   1.083       .  S
C3267      C3268   1.423       .  A
C3268     Br3269   1.924       .  S
C3273      C3274   1.413       .  A
C3273      H3280   1.083       .  S
C3274      C3275   1.415       .  A
C3275      C3276   1.403       .  A
C3275     Br3282   1.922       .  S
C3276      C3277   1.407       .  A
C3276      H3281   1.080       .  S
C3278     Br3279   1.922   1_545  S
C3283      C3288   1.399   1_455  A
C3283      H3290   1.084       .  S
C3285      C3286   1.399       .  A
C3286      C3287   1.409       .  A
C3286      H3291   1.084       .  S
C3287      C3288   1.412       .  A
C3288     Br3289   1.921   1_655  S
C3293      C3294   1.402       .  A
C3293      C3298   1.407       .  A
C3293      H3300   1.083       .  S
C3294      C3295   1.413       .  A
C3295      C3296   1.402       .  A
C3296      C3297   1.406       .  A
C3296      H3301   1.084       .  S
C3297      C3298   1.422       .  A
C3298     Br3299   1.922       .  S
C3303      C3304   1.415       .  A
C3303      C3308   1.403       .  A
C3303      H3310   1.083   1_655  S
C3304      C3305   1.407       .  A
C3305      C3306   1.395       .  A
C3305     Br3312   1.922       .  S
C3306      C3307   1.408       .  A
C3306      H3311   1.079       .  S
C3307      C3308   1.403       .  A
C3308     Br3309   1.918   1_655  S
