geometry optimzed in LAMMPS
_audit_creation_date              2020-12-01 
_audit_creation_method            'lammps2cif' 
_symmetry_space_group_name_H-M    'P1' 
_symmetry_Int_Tables_number       1 
_symmetry_cell_setting            triclinic 
loop_ 
_symmetry_equiv_pos_as_xyz 
  x,y,z 
_cell_length_a                    49.15148369 
_cell_length_b                    49.11804559328617 
_cell_length_c                    26.152252348009288 
_cell_angle_alpha                 90.03915969356024 
_cell_angle_beta                  88.88398739821723 
_cell_angle_gamma                 89.76180515724077 
loop_ 
_atom_site_label 
_atom_site_type_symbol 
_atom_site_fract_x 
_atom_site_fract_y 
_atom_site_fract_z 
_atom_site_charge 
C1          C  0.34375824  0.18846339  0.00208016     0.80100
N2          N  0.33647557  0.16171024  0.00256700    -0.78200
C3          C  0.31112459  0.15724107  0.48708316     0.82600
N4          N  0.29245630  0.17760110  0.48234359    -0.78100
C5          C  0.30016398  0.20421081  0.48243185     0.82700
N6          N  0.32418212  0.20790042  0.99716490    -0.79800
C7          C  0.41536042  0.44077371  0.24202561     0.80100
N8          N  0.42336661  0.41425703  0.24569103    -0.78200
C9          C  0.45028180  0.40763454  0.24773344     0.82600
N10         N  0.46912438  0.42772460  0.24521665    -0.78100
C11         C  0.46153377  0.45419804  0.24151693     0.82700
N12         N  0.43462932  0.46064667  0.24083073    -0.79800
C13         C  0.20112754  0.33350838  0.48876245     0.80100
N14         N  0.17454290  0.32560122  0.48946992    -0.78200
C15         C  0.16780041  0.29872395  0.48736223     0.82600
N16         N  0.18795226  0.27974910  0.48627438    -0.78100
C17         C  0.21456069  0.28703174  0.48685976     0.82700
N18         N  0.22099545  0.31399196  0.48771488    -0.79800
O19         O  0.26108532  0.01715918  0.31578427    -0.74500
O20         O  0.26067526  0.01586585  0.16912902    -0.74500
O21         O  0.22424180  0.02998231  0.24415379    -0.74600
O22         O  0.29763021  0.00356209  0.24139627    -0.74600
O23         O  0.28296036  0.46077557  0.24335531    -0.74600
O24         O  0.20893807  0.48746487  0.24601921    -0.74600
O25         O  0.24560992  0.47306732  0.17136592    -0.74500
O26         O  0.24593618  0.47437692  0.31750496    -0.74600
Ni27       Ni  0.26143473  0.01814741  0.24243868     1.25400
Ni28       Ni  0.24530544  0.47238577  0.24453670     1.25400
C29         C  0.25357433  0.49589981  0.34053471     0.87700
C30         C  0.25316703  0.49415335  0.14634998     0.87600
C31         C  0.20433721  0.01330705  0.24593478     0.87600
C32         C  0.30259042  0.47798124  0.24302039     0.87800
O33         O  0.22039906  0.46281936  0.99284399    -0.74500
O34         O  0.24557881  0.04065479  0.49248924    -0.74500
O35         O  0.23236734  0.00313219  0.42137018    -0.74600
O36         O  0.23198033  0.00017821  0.06657393    -0.74600
O37         O  0.27513073  0.48566300  0.06671227    -0.74600
O38         O  0.27560746  0.48883560  0.41876386    -0.74600
O39         O  0.28838531  0.02269855  0.99387822    -0.74500
O40         O  0.26366776  0.45188172  0.49322425    -0.74600
Ni41       Ni  0.23162142  0.00405035  0.49465652     1.25400
Ni42       Ni  0.27776497  0.48851889  0.49176830     1.25400
C43         C  0.23809344  0.44672242  0.49535461     0.87700
C44         C  0.27115745  0.04567648  0.49039934     0.87600
C45         C  0.25387650  0.49602783  0.39620231     0.87600
C46         C  0.25343069  0.49328225  0.09057491     0.87800
C47         C  0.05790292  0.08419879  0.25609560     0.80100
N48         N  0.08431679  0.07570570  0.25651178    -0.78200
C49         C  0.09064952  0.04864088  0.25481369     0.82600
N50         N  0.07018029  0.03023160  0.25192665    -0.78100
C51         C  0.04373033  0.03832089  0.25265163     0.82700
N52         N  0.03773399  0.06531679  0.25468819    -0.79800
O53         O  0.03809001  0.21642112  0.26188113    -0.74500
O54         O  0.01150821  0.29033602  0.26007679    -0.74500
O55         O  0.02510567  0.25413933  0.33410884    -0.74600
O56         O  0.02514879  0.25279776  0.18800893    -0.74600
O57         O  0.48255680  0.23717510  0.18983198    -0.74600
O58         O  0.48219344  0.23940155  0.33655684    -0.74600
O59         O  0.46889821  0.27499885  0.26111508    -0.74500
O60         O  0.49539584  0.20153826  0.26499806    -0.74600
Ni61       Ni  0.02648444  0.25398107  0.26099012     1.25400
Ni62       Ni  0.48073620  0.23774773  0.26324468     1.25400
C63         C  0.02097014  0.19676087  0.26423559     0.86500
C64         C  0.48574049  0.29479376  0.25926842     0.87600
C65         C  0.00378422  0.24683601  0.35917111     0.87600
C66         C  0.00391239  0.24483242  0.16497059     0.87800
O67         O  0.01264859  0.22497865  0.43750658    -0.74500
O68         O  0.01169097  0.22349245  0.08487718    -0.74500
O69         O  0.47692594  0.21124834  0.51303126    -0.74600
O70         O  0.04846541  0.23654908  0.00940188    -0.74600
O71         O  0.03516063  0.28031608  0.51045184    -0.74600
O72         O  0.45953047  0.25365116  0.01466487    -0.74600
O73         O  0.49667061  0.26644951  0.08587061    -0.74500
O74         O  0.49726352  0.26779982  0.44004766    -0.74600
Ni75       Ni  0.01206182  0.22212333  0.01157074     1.25400
Ni76       Ni  0.49590829  0.26806140  0.01275421     1.25400
C77         C  0.00446928  0.24651417  0.41486543     0.87700
C78         C  0.00404770  0.24488376  0.10922780     0.87600
C79         C  0.45486280  0.22799374  0.01467205     0.87600
C80         C  0.05310170  0.26223655  0.00892788     0.87800
C81         C  0.02940151  0.12100168  0.29371340    -0.05900
C82         C  0.05055006  0.11364785  0.25950264     0.00100
C83         C  0.06262153  0.13405875  0.22810610    -0.08500
C84         C  0.05265086  0.16099371  0.23171743    -0.05900
C85         C  0.03094149  0.16810345  0.26486370     0.00100
C86         C  0.01933589  0.14783604  0.29716580    -0.08400
C87         C  0.99684445  0.15438425  0.33603803     0.62000
H88         H  0.02064788  0.10533094  0.31789070     0.12700
H89         H  0.56146572  0.17684073  0.20763040     0.12700
C90         C  0.08540021  0.12754495  0.18999280     0.62200
F91         F  0.99178545  0.13276323  0.36878010    -0.23000
F92         F  0.97296736  0.16026269  0.31117789    -0.20300
F93         F  0.00422063  0.17646482  0.36545979    -0.20000
F94         F  0.57796675  0.10627179  0.15854931    -0.20000
F95         F  0.10862781  0.12066280  0.21597733    -0.20400
F96         F  0.59153046  0.14969507  0.15856727    -0.23000
C97         C  0.13934822  0.05627437  0.23152740    -0.05900
C98         C  0.11972196  0.03940795  0.25484879     0.00100
C99         C  0.12845724  0.01475597  0.27805052    -0.08500
C100        C  0.15609362  0.00715032  0.27352455    -0.05900
C101        C  0.17565319  0.02372789  0.24916005     0.00100
C102        C  0.16722843  0.04934189  0.22923172    -0.08400
C103        C  0.18717376  0.06947739  0.20533760     0.62000
H104        H  0.13258736  0.07511029  0.21460776     0.12700
H105        H  0.16253203  0.48744672  0.28785975     0.12700
C106        C  0.10895119  0.49582950  0.30649944     0.62200
F107        F  0.17413808  0.09200959  0.18529657    -0.23000
F108        F  0.20182554  0.05712080  0.16597902    -0.20300
F109        F  0.20474483  0.07874223  0.24213485    -0.20000
F110        F  0.09192524  0.48262936  0.27319820    -0.20000
F111        F  0.09364750  0.51095288  0.34133878    -0.20400
F112        F  0.12277497  0.47614528  0.33372872    -0.23000
C113        C  0.23140250  0.36998168  0.52113859    -0.05900
C114        C  0.20886810  0.36305339  0.49149114     0.00100
C115        C  0.19670417  0.38037147  0.95714318    -0.08500
C116        C  0.20672859  0.40729442  0.96053751    -0.05900
C117        C  0.22839008  0.41778084  0.49589527     0.00100
C118        C  0.24119985  0.39691306  0.52445781    -0.08400
C119        C  0.26459504  0.40301128  0.55976933     0.62000
H120        H  0.24139723  0.35392632  0.54212965     0.12700
H121        H  0.19803864  0.42320642  0.93723730     0.12700
C122        C  0.17425979  0.37412979  0.91979558     0.62200
F123        F  0.27078316  0.38094704  0.59040695    -0.23000
F124        F  0.25311483  0.42180013  0.09294046    -0.20300
F125        F  0.28764858  0.40943128  0.53124681    -0.20000
F126        F  0.15060629  0.36754524  0.94636516    -0.20000
F127        F  0.17703988  0.35766753  0.39718980    -0.20400
F128        F  0.16863529  0.39617874  0.88872953    -0.23000
C129        C  0.12159569  0.30208298  0.52753199    -0.05900
C130        C  0.13872775  0.28998132  0.49025215     0.00100
C131        C  0.12427306  0.27106586  0.95291132    -0.08500
C132        C  0.09705483  0.26294657  0.96119053    -0.05900
C133        C  0.08161348  0.27201764  0.00361815     0.00100
C134        C  0.09417223  0.29416534  0.53456569    -0.08400
C135        C  0.07693253  0.30738353  0.57659023     0.62000
H136        H  0.13005330  0.31764297  0.55179821     0.12700
H137        H  0.08750065  0.24937444  0.93433317     0.12700
C138        C  0.13964108  0.26131809  0.90532154     0.62200
F139        F  0.09215891  0.32432725  0.60709415    -0.23000
F140        F  0.06945357  0.27629720  0.11433484    -0.20300
F141        F  0.05655525  0.32286688  0.55519860    -0.20000
F142        F  0.15975856  0.24308283  0.91863897    -0.20000
F143        F  0.15599724  0.27792698  0.38454306    -0.20400
F144        F  0.12264732  0.24837159  0.87147772    -0.23000
C145        C  0.48041328  0.99563103  0.28084457    -0.05900
C146        C  0.48237777  0.47594046  0.24220972     0.00100
C147        C  0.00416012  0.47720388  0.20606376    -0.08500
C148        C  0.02352318  0.49811860  0.21045193    -0.05900
C149        C  0.02182911  0.01763932  0.25000796     0.00100
C150        C  0.49993926  0.01638337  0.28549229    -0.08400
C151        C  0.49791165  0.03597953  0.33032599     0.62000
H152        H  0.46369000  0.99424545  0.30825678     0.12700
H153        H  0.04033576  0.49938374  0.18321873     0.12700
C154        C  0.00657684  0.45704960  0.16212128     0.62200
F155        F  0.47775088  0.02846850  0.36517949    -0.23000
F156        F  0.49179781  0.06177738  0.31288462    -0.20300
F157        F  0.02264577  0.03597803  0.35698841    -0.20000
F158        F  0.98244652  0.45642242  0.13578836    -0.20000
F159        F  0.01222371  0.43134846  0.18070009    -0.20400
F160        F  0.02720959  0.46400908  0.12783811    -0.23000
C161        C  0.37827381  0.47132337  0.27248681    -0.05900
C162        C  0.38594364  0.44860696  0.24282850     0.00100
C163        C  0.36583293  0.43513971  0.21388526    -0.08500
C164        C  0.33884839  0.44522176  0.21547995    -0.05900
C165        C  0.33137299  0.46827125  0.24444687     0.00100
C166        C  0.35138294  0.48133080  0.27427294    -0.08400
C167        C  0.34444090  0.00530359  0.30911589     0.62000
H168        H  0.39373950  0.48131699  0.29459743     0.12700
H169        H  0.32332609  0.43534240  0.19333537     0.12700
C170        C  0.37276754  0.41078238  0.18022619     0.62200
F171        F  0.36574618  0.01169608  0.34079026    -0.23000
F172        F  0.32213779  0.99910255  0.33994135    -0.20300
F173        F  0.33879913  0.02809621  0.28014435    -0.20000
F174        F  0.37939356  0.38873374  0.21041178    -0.20000
F175        F  0.39449797  0.41693328  0.14791370    -0.20400
F176        F  0.35112346  0.40330228  0.15022670    -0.23000
C177        C  0.48697170  0.34266327  0.28886255    -0.05900
C178        C  0.47543430  0.32327409  0.25650651     0.00100
C179        C  0.45520019  0.33164062  0.22167062    -0.08500
C180        C  0.44728565  0.35927917  0.22070570    -0.05900
C181        C  0.45911722  0.37873962  0.25261331     0.00100
C182        C  0.47907709  0.37026459  0.28792859    -0.08400
C183        C  0.99177639  0.38996239  0.32530686     0.62000
H184        H  0.00243580  0.33592100  0.31497890     0.12700
H185        H  0.43209307  0.36607365  0.19406959     0.12700
C186        C  0.44283156  0.31184543  0.18405949     0.62200
F187        F  0.00639358  0.37648370  0.36235151    -0.23000
F188        F  0.97164780  0.40507448  0.34998865    -0.20300
F189        F  0.00942409  0.40723494  0.29952317    -0.20000
F190        F  0.42712682  0.29290008  0.21005167    -0.20000
F191        F  0.46329109  0.29862743  0.15669810    -0.20400
F192        F  0.42635026  0.32493340  0.14937762    -0.23000
C193        C  0.25148992  0.21788185  0.01439631    -0.05900
C194        C  0.27906809  0.22623093  0.48245105     0.00100
C195        C  0.28198715  0.25127560  0.45562380    -0.08500
C196        C  0.26040378  0.27040888  0.45789028    -0.05900
C197        C  0.23640055  0.26570254  0.48668519     0.00100
C198        C  0.22978884  0.23671587  0.01361487    -0.08400
C199        C  0.20385140  0.23007923  0.04370516     0.62000
H200        H  0.24946399  0.19936511  0.03652689     0.12700
H201        H  0.26213588  0.28936898  0.43702386     0.12700
C202        C  0.30745156  0.25785417  0.42418388     0.62200
F203        F  0.20677050  0.20706869  0.07369840    -0.23000
F204        F  0.18733937  0.22955755  0.52443720    -0.20300
F205        F  0.19684909  0.25147287  0.07582320    -0.20000
F206        F  0.31339909  0.23677609  0.39062726    -0.20000
F207        F  0.32600414  0.25648552  0.95167014    -0.20400
F208        F  0.30434520  0.28137628  0.39568690    -0.23000
C209        C  0.37870657  0.21770749  0.04177899    -0.05900
C210        C  0.37272543  0.19686100  0.00688545     0.00100
C211        C  0.39730372  0.18494285  0.47398642    -0.08500
C212        C  0.42371151  0.19523766  0.48119854    -0.05900
C213        C  0.42636087  0.21779548  0.01409336     0.00100
C214        C  0.40523417  0.22826191  0.04637216    -0.08400
C215        C  0.41070376  0.24984221  0.08654048     0.62000
H216        H  0.36225777  0.22577602  0.06549305     0.12700
H217        H  0.44087496  0.18594090  0.46122594     0.12700
C218        C  0.39349430  0.16112347  0.43774723     0.62200
F219        F  0.38832012  0.25415049  0.11853917    -0.23000
F220        F  0.41737180  0.27691194  0.55054838    -0.20300
F221        F  0.43216426  0.24172921  0.11649432    -0.20000
F222        F  0.37446602  0.16773478  0.40147048    -0.20000
F223        F  0.38215022  0.14007772  0.95971873    -0.20400
F224        F  0.41747093  0.15414726  0.41220448    -0.23000
C225        C  0.28237722  0.12017070  0.45273009    -0.05900
C226        C  0.30192491  0.12827513  0.48816664     0.00100
C227        C  0.31182810  0.10482522  0.03029408    -0.08500
C228        C  0.30144659  0.07806941  0.02742367    -0.05900
C229        C  0.28088487  0.07437047  0.48863417     0.00100
C230        C  0.27154916  0.09359277  0.45240791    -0.08400
C231        C  0.25068618  0.08597690  0.41283839     0.62000
H232        H  0.27551543  0.13501318  0.42514791     0.12700
H233        H  0.30912550  0.06239341  0.05251539     0.12700
C234        C  0.33290163  0.11137745  0.07017446     0.62200
F235        F  0.24684280  0.10659758  0.37760679    -0.23000
F236        F  0.22591389  0.08082584  0.43675366    -0.20300
F237        F  0.25754360  0.06219936  0.89191260    -0.20000
F238        F  0.32065354  0.14067387  0.59134079    -0.20000
F239        F  0.35755752  0.11713974  0.04644057    -0.20400
F240        F  0.33696714  0.08979199  0.10323324    -0.23000
C241        C  0.34596437  0.19023537  0.49162143     0.80100
N242        N  0.33788216  0.16375314  0.49156430    -0.78200
C243        C  0.30993247  0.15435294  0.99801313     0.82600
N244        N  0.29076811  0.17415324  0.99226043    -0.78100
C245        C  0.29768192  0.20094968  0.99153840     0.82700
N246        N  0.32688883  0.21025043  0.48774556    -0.79800
C247        C  0.41909543  0.44137326  0.74897762     0.80100
N248        N  0.42635424  0.41464380  0.75340425    -0.78200
C249        C  0.45307355  0.40726979  0.75633666     0.82600
N250        N  0.47245407  0.42684014  0.75390480    -0.78100
C251        C  0.46564978  0.45349311  0.74941119     0.82700
N252        N  0.43894370  0.46064625  0.74766411    -0.79800
C253        C  0.19997993  0.33031077  0.98572694     0.80100
N254        N  0.17314978  0.32329455  0.98678777    -0.78200
C255        C  0.16559779  0.29665386  0.98513304     0.82600
N256        N  0.18508070  0.27702289  0.98404818    -0.78100
C257        C  0.21190785  0.28339120  0.98460145     0.82700
N258        N  0.21923115  0.31016403  0.98511723    -0.79800
O259        O  0.26342235  0.01629354  0.81735813    -0.74500
O260        O  0.26340434  0.01812295  0.67045326    -0.74500
O261        O  0.22644373  0.02954090  0.74582344    -0.74600
O262        O  0.30074012  0.00543399  0.74244213    -0.74600
O263        O  0.28732886  0.46227082  0.74178075    -0.74600
O264        O  0.21239411  0.48648198  0.74343420    -0.74600
O265        O  0.25004736  0.47475413  0.66954117    -0.74500
O266        O  0.24931553  0.47317954  0.81563962    -0.74600
Ni267      Ni  0.26401608  0.01887068  0.74400564     1.25400
Ni268      Ni  0.24929494  0.47262227  0.74250983     1.25400
C269        C  0.25628637  0.49438013  0.84042799     0.87700
C270        C  0.25649728  0.49668146  0.64610252     0.87600
C271        C  0.20717725  0.01211307  0.74525644     0.87600
C272        C  0.30648137  0.48000624  0.74279921     0.87800
O273        O  0.22068850  0.46629866  0.49615523    -0.74500
O274        O  0.24540427  0.03722020  0.99344801    -0.74500
O275        O  0.23371707  0.00039090  0.92013926    -0.74600
O276        O  0.23407530  0.00408977  0.56790098    -0.74600
O277        O  0.27711679  0.48933018  0.56495031    -0.74600
O278        O  0.27683686  0.48588027  0.92008309    -0.74600
O279        O  0.28861069  0.02617456  0.49050468    -0.74500
O280        O  0.26338202  0.44841770  0.99325151    -0.74600
Ni281      Ni  0.23132116  0.00061922  0.99326988     1.25400
Ni282      Ni  0.27744765  0.48508518  0.99346707     1.25400
C283        C  0.23781169  0.44324084  0.99325695     0.87700
C284        C  0.27100076  0.04224650  0.99339115     0.87600
C285        C  0.25564443  0.49354768  0.89621114     0.87600
C286        C  0.25593011  0.49694278  0.59033274     0.87800
C287        C  0.06184743  0.08409231  0.74768480     0.80100
N288        N  0.08839102  0.07606540  0.74457888    -0.78200
C289        C  0.09492782  0.04912107  0.74119863     0.82600
N290        N  0.07475416  0.03025571  0.74254234    -0.78100
C291        C  0.04819271  0.03798977  0.74677850     0.82700
N292        N  0.04199322  0.06491915  0.74896864    -0.79800
O293        O  0.04010390  0.21562758  0.76171701    -0.74500
O294        O  0.01300041  0.28928289  0.76190507    -0.74500
O295        O  0.02586811  0.25255983  0.83518020    -0.74600
O296        O  0.02746762  0.25249774  0.68868272    -0.74600
O297        O  0.48500216  0.23641460  0.68882318    -0.74600
O298        O  0.48298395  0.23760521  0.83543252    -0.74600
O299        O  0.47046395  0.27376417  0.76075577    -0.74500
O300        O  0.49746959  0.20022912  0.76332969    -0.74600
Ni301      Ni  0.02813324  0.25304017  0.76192449     1.25400
Ni302      Ni  0.48246914  0.23644391  0.76211491     1.25400
C303        C  0.02320849  0.19578193  0.76263272     0.86500
C304        C  0.48723112  0.29366814  0.76072142     0.87600
C305        C  0.00418049  0.24522208  0.85917355     0.87600
C306        C  0.00650983  0.24444806  0.66477934     0.87800
O307        O  0.01130849  0.22368277  0.93847568    -0.74500
O308        O  0.01453216  0.22379129  0.58394059    -0.74500
O309        O  0.47460346  0.21081758  0.01337519    -0.74600
O310        O  0.05054322  0.23761164  0.50758783    -0.74600
O311        O  0.03341188  0.27942991  0.01072926    -0.74600
O312        O  0.46155517  0.25393133  0.51554023    -0.74600
O313        O  0.49906883  0.26658474  0.58631724    -0.74500
O314        O  0.49618799  0.26659035  0.93938828    -0.74600
Ni315      Ni  0.01424898  0.22289460  0.51053151     1.25400
Ni316      Ni  0.49773870  0.26868260  0.51329874     1.25400
C317        C  0.00378420  0.24517601  0.91496768     0.87700
C318        C  0.00684136  0.24495791  0.60899102     0.87600
C319        C  0.45704596  0.22825973  0.51455556     0.87600
C320        C  0.05502259  0.26333705  0.50778144     0.87800
C321        C  0.03516636  0.12043328  0.79121098    -0.05900
C322        C  0.05404892  0.11331843  0.75239936     0.00100
C323        C  0.06302677  0.13356599  0.71736404    -0.08500
C324        C  0.05304412  0.16040595  0.72318420    -0.05900
C325        C  0.03363842  0.16731141  0.76122514     0.00100
C326        C  0.02453128  0.14701304  0.79603713    -0.08400
C327        C  0.00390691  0.15330672  0.83846912     0.62000
H328        H  0.02844299  0.10471757  0.81751421     0.12700
H329        H  0.55959301  0.17610545  0.69683547     0.12700
C330        C  0.08179781  0.12664728  0.67237807     0.62200
F331        F  0.00068024  0.13163742  0.87186341    -0.23000
F332        F  0.97885550  0.15890804  0.81768853    -0.20300
F333        F  0.01238074  0.17552710  0.86637555    -0.20000
F334        F  0.57073663  0.10555839  0.64447715    -0.20000
F335        F  0.10703779  0.11887244  0.68974235    -0.20400
F336        F  0.58538619  0.14858552  0.63992039    -0.23000
C337        C  0.14009016  0.04734017  0.78160095    -0.05900
C338        C  0.12385770  0.04018273  0.74019060     0.00100
C339        C  0.13531508  0.02430913  0.69981833    -0.08500
C340        C  0.16240898  0.01503250  0.70356042    -0.05900
C341        C  0.17853825  0.02190706  0.74527901     0.00100
C342        C  0.16736127  0.03854954  0.78485434    -0.08400
C343        C  0.18383828  0.04619326  0.83118234     0.62000
H344        H  0.13103056  0.05962878  0.81188407     0.12700
H345        H  0.17145578  0.50271367  0.67335402     0.12700
C346        C  0.11943352  0.51825216  0.65203736     0.62200
F347        F  0.16839569  0.06037601  0.86723150    -0.23000
F348        F  0.20546868  0.06248052  0.81646774    -0.20300
F349        F  0.19358017  0.02285582  0.85409741    -0.20000
F350        F  0.10954632  0.54228988  0.63186245    -0.20000
F351        F  0.09794489  0.50119693  0.66371813    -0.20400
F352        F  0.13548456  0.50569491  0.61477897    -0.23000
C353        C  0.22966993  0.36670860  0.02044746    -0.05900
C354        C  0.20847688  0.35962896  0.98768415     0.00100
C355        C  0.19535358  0.38413652  0.46443029    -0.08500
C356        C  0.20542161  0.41106715  0.46723260    -0.05900
C357        C  0.22816537  0.41426856  0.99286888     0.00100
C358        C  0.23952718  0.39363365  0.02412738    -0.08400
C359        C  0.26132867  0.40004003  0.06267569     0.62000
H360        H  0.23842683  0.35082023  0.04371597     0.12700
H361        H  0.19555458  0.42720140  0.44623743     0.12700
C362        C  0.17090519  0.37837160  0.43146558     0.62200
F363        F  0.26628744  0.37818670  0.09463393    -0.23000
F364        F  0.25773210  0.42459664  0.59157889    -0.20300
F365        F  0.28543752  0.40639091  0.03743742    -0.20000
F366        F  0.14895842  0.37087791  0.46212288    -0.20000
F367        F  0.18198838  0.35259290  0.88854331    -0.20400
F368        F  0.16320940  0.40098627  0.40357954    -0.23000
C369        C  0.12085672  0.29811564  0.03089841    -0.05900
C370        C  0.13642272  0.28874089  0.98879008     0.00100
C371        C  0.12790118  0.26961393  0.45784377    -0.08500
C372        C  0.10062294  0.26144045  0.46545852    -0.05900
C373        C  0.08358201  0.27337080  0.50300919     0.00100
C374        C  0.09364907  0.28982565  0.03930163    -0.08400
C375        C  0.07830589  0.29889315  0.08731413     0.62000
H376        H  0.13050566  0.31142132  0.05807481     0.12700
H377        H  0.09217930  0.24575749  0.44143135     0.12700
C378        C  0.14445847  0.25736623  0.41373925     0.62200
F379        F  0.09449294  0.31417217  0.11910211    -0.23000
F380        F  0.06543223  0.28755045  0.60761096    -0.20300
F381        F  0.05612646  0.31466105  0.07443435    -0.20000
F382        F  0.16474865  0.24072475  0.43210502    -0.20000
F383        F  0.15133158  0.28325048  0.88020487    -0.20400
F384        F  0.12852152  0.24178957  0.38198893    -0.23000
C385        C  0.48364200  0.99753338  0.77982449    -0.05900
C386        C  0.48708832  0.47473947  0.74791416     0.00100
C387        C  0.01036355  0.47308864  0.71504377    -0.08500
C388        C  0.02957302  0.49427456  0.71593674    -0.05900
C389        C  0.02631099  0.01704195  0.74805251     0.00100
C390        C  0.50294680  0.01867681  0.78100357    -0.08400
C391        C  0.49848304  0.04212500  0.81823967     0.62000
H392        H  0.46568833  0.99849754  0.80434211     0.12700
H393        H  0.04734279  0.49325617  0.69111543     0.12700
C394        C  0.01473676  0.44949983  0.67808943     0.62200
F395        F  0.47709024  0.03718210  0.85215207    -0.23000
F396        F  0.49244633  0.06561388  0.79160655    -0.20300
F397        F  0.02159780  0.04613930  0.84651338    -0.20000
F398        F  0.99152512  0.44540538  0.65004873    -0.20000
F399        F  0.02079580  0.42608429  0.70489228    -0.20400
F400        F  0.03604159  0.45433381  0.64392869    -0.23000
C401        C  0.38252737  0.47436416  0.77262897    -0.05900
C402        C  0.38988054  0.45011077  0.74723116     0.00100
C403        C  0.36976545  0.43615700  0.71913848    -0.08500
C404        C  0.34292993  0.44661392  0.71899893    -0.05900
C405        C  0.33557924  0.47085738  0.74447391     0.00100
C406        C  0.35590049  0.48516669  0.77164159    -0.08400
C407        C  0.34977794  0.01152762  0.80029686     0.62000
H408        H  0.39807225  0.48499508  0.79346017     0.12700
H409        H  0.32738021  0.43596019  0.69821798     0.12700
C410        C  0.37654852  0.41087356  0.68789333     0.62200
F411        F  0.37159609  0.01997803  0.82893959    -0.23000
F412        F  0.32781818  0.00798416  0.83348360    -0.20300
F413        F  0.34406361  0.03201983  0.76584024    -0.20000
F414        F  0.38194477  0.38935356  0.72021964    -0.20000
F415        F  0.39899041  0.41568183  0.65647014    -0.20400
F416        F  0.35525966  0.40336680  0.65705066    -0.23000
C417        C  0.48920286  0.34106693  0.79284929    -0.05900
C418        C  0.47697992  0.32227497  0.76011615     0.00100
C419        C  0.45627039  0.33141262  0.72698590    -0.08500
C420        C  0.44868977  0.35917910  0.72787953    -0.05900
C421        C  0.46124405  0.37806038  0.76008067     0.00100
C422        C  0.48163086  0.36877294  0.79384613    -0.08400
C423        C  0.99520121  0.38771466  0.83150921     0.62000
H424        H  0.00503645  0.33382360  0.81764191     0.12700
H425        H  0.43323468  0.36654412  0.70233042     0.12700
C426        C  0.44297726  0.31230544  0.68928852     0.62200
F427        F  0.00990567  0.37341112  0.86734988    -0.23000
F428        F  0.97569982  0.40295971  0.85763283    -0.20300
F429        F  0.01298631  0.40490666  0.80591925    -0.20000
F430        F  0.42741872  0.29329570  0.71543133    -0.20000
F431        F  0.46275917  0.29910450  0.66011719    -0.20400
F432        F  0.42610030  0.32609283  0.65625430    -0.23000
C433        C  0.25519945  0.22170837  0.51145569    -0.05900
C434        C  0.27604860  0.22224302  0.98747611     0.00100
C435        C  0.27883427  0.24605525  0.95704675    -0.08500
C436        C  0.25748250  0.26542075  0.95747639    -0.05900
C437        C  0.23306285  0.26133793  0.98534716     0.00100
C438        C  0.23412022  0.24114373  0.51523575    -0.08400
C439        C  0.21030637  0.23564764  0.55171748     0.62000
H440        H  0.25337769  0.20276057  0.53234809     0.12700
H441        H  0.25962703  0.28393482  0.93535926     0.12700
C442        C  0.30361734  0.25062347  0.92251849     0.62200
F443        F  0.21546467  0.21386558  0.58374337    -0.23000
F444        F  0.18296019  0.22516132  0.01034630    -0.20300
F445        F  0.20532664  0.25819982  0.58226261    -0.20000
F446        F  0.30885009  0.22755016  0.89348708    -0.20000
F447        F  0.32912216  0.26173566  0.45628200    -0.20400
F448        F  0.29973321  0.27210256  0.88914374    -0.23000
C449        C  0.37998692  0.21999675  0.53207439    -0.05900
C450        C  0.37495893  0.19785697  0.49949201     0.00100
C451        C  0.39399532  0.18608683  0.97535241    -0.08500
C452        C  0.42046397  0.19667684  0.97986646    -0.05900
C453        C  0.42859118  0.21793462  0.51246598     0.00100
C454        C  0.40638665  0.23018902  0.53946233    -0.08400
C455        C  0.41034768  0.25349381  0.57684617     0.62000
H456        H  0.36282269  0.22950295  0.55169636     0.12700
H457        H  0.43685198  0.18880724  0.95576817     0.12700
C458        C  0.38875539  0.16424912  0.93564599     0.62200
F459        F  0.38687557  0.25897188  0.60522175    -0.23000
F460        F  0.41701463  0.27429405  0.06312857    -0.20300
F461        F  0.43063714  0.24691809  0.61069702    -0.20000
F462        F  0.36761164  0.17218030  0.90476331    -0.20000
F463        F  0.38484723  0.13855570  0.46488135    -0.20400
F464        F  0.41138257  0.15951204  0.90449259    -0.23000
C465        C  0.28116633  0.11776035  0.96240535    -0.05900
C466        C  0.30150298  0.12508052  0.99689711     0.00100
C467        C  0.31074817  0.10916479  0.52520528    -0.08500
C468        C  0.30045099  0.08238562  0.52393820    -0.05900
C469        C  0.28082258  0.07097712  0.99344730     0.00100
C470        C  0.27064475  0.09113097  0.95992285    -0.08400
C471        C  0.24929561  0.08451569  0.92059938     0.62000
H472        H  0.27343207  0.13329185  0.93707932     0.12700
H473        H  0.30728406  0.06746595  0.55141402     0.12700
C474        C  0.32989532  0.11713167  0.56754350     0.62200
F475        F  0.24514157  0.10595933  0.88727340    -0.23000
F476        F  0.22475057  0.07891100  0.94496801    -0.20300
F477        F  0.25929287  0.06302710  0.38641914    -0.20000
F478        F  0.32441680  0.13353413  0.09911025    -0.20000
F479        F  0.35571521  0.12135338  0.54747541    -0.20400
F480        F  0.33164732  0.09707021  0.60451003    -0.23000
C481        C  0.34376916  0.68848657  0.00206757     0.80100
N482        N  0.33649523  0.66173137  0.00256218    -0.78200
C483        C  0.31113439  0.65725617  0.48712901     0.82600
N484        N  0.29246282  0.67761426  0.48240375    -0.78100
C485        C  0.30016667  0.70422519  0.48250209     0.82700
N486        N  0.32418671  0.70791730  0.99715317    -0.79800
C487        C  0.41530353  0.94078591  0.24198495     0.80100
N488        N  0.42331959  0.91427353  0.24567536    -0.78200
C489        C  0.45023797  0.90766015  0.24767667     0.82600
N490        N  0.46907415  0.92775421  0.24509273    -0.78100
C491        C  0.46147412  0.95422382  0.24136255     0.82700
N492        N  0.43456651  0.96066440  0.24072031    -0.79800
C493        C  0.20110132  0.83350236  0.48881287     0.80100
N494        N  0.17451829  0.82559052  0.48952310    -0.78200
C495        C  0.16778045  0.79871188  0.48742703     0.82600
N496        N  0.18793560  0.77974013  0.48634762    -0.78100
C497        C  0.21454296  0.78702771  0.48692984     0.82700
N498        N  0.22097262  0.81398938  0.48777374    -0.79800
O499        O  0.26114386  0.51713875  0.31581276    -0.74500
O500        O  0.26070852  0.51586267  0.16916438    -0.74500
O501        O  0.22427880  0.52994253  0.24422587    -0.74600
O502        O  0.29768316  0.50356295  0.24139948    -0.74600
O503        O  0.28289175  0.96078031  0.24333806    -0.74600
O504        O  0.20887903  0.98750259  0.24601318    -0.74600
O505        O  0.24554052  0.97308313  0.17134909    -0.74500
O506        O  0.24587491  0.97439794  0.31748356    -0.74600
Ni507      Ni  0.26147954  0.51813169  0.24247304     1.25400
Ni508      Ni  0.24523982  0.97240589  0.24452005     1.25400
C509        C  0.25351581  0.99592013  0.34050975     0.87700
C510        C  0.25311659  0.99415943  0.14632395     0.87600
C511        C  0.20437511  0.51326669  0.24598887     0.87600
C512        C  0.30252831  0.97797917  0.24301921     0.87800
O513        O  0.22036340  0.96280652  0.99280079    -0.74500
O514        O  0.24560648  0.54065756  0.49249219    -0.74500
O515        O  0.23241315  0.50312298  0.42137811    -0.74600
O516        O  0.23202756  0.50018841  0.06660905    -0.74600
O517        O  0.27508563  0.98565995  0.06669426    -0.74600
O518        O  0.27555994  0.98884042  0.41872275    -0.74600
O519        O  0.28842688  0.52270417  0.99389393    -0.74500
O520        O  0.26363174  0.95187780  0.49318122    -0.74600
Ni521      Ni  0.23165276  0.50405132  0.49466349     1.25400
Ni522      Ni  0.27773205  0.98851361  0.49172561     1.25400
C523        C  0.23805737  0.94672047  0.49533364     0.87700
C524        C  0.27118472  0.54568245  0.49041888     0.87600
C525        C  0.25382667  0.99604146  0.39617767     0.87600
C526        C  0.25338307  0.99327930  0.09054854     0.87800
C527        C  0.05789890  0.58418266  0.25588594     0.80100
N528        N  0.08430127  0.57564659  0.25633157    -0.78200
C529        C  0.09060222  0.54857082  0.25450293     0.82600
N530        N  0.07009819  0.53020945  0.25147033    -0.78100
C531        C  0.04366065  0.53833514  0.25219886     0.82700
N532        N  0.03770317  0.56533513  0.25435532    -0.79800
O533        O  0.03809371  0.71640252  0.26191447    -0.74500
O534        O  0.01151031  0.79031132  0.26010060    -0.74500
O535        O  0.02510547  0.75412029  0.33414031    -0.74600
O536        O  0.02514901  0.75277212  0.18803721    -0.74600
O537        O  0.48253843  0.73721736  0.18981768    -0.74600
O538        O  0.48217876  0.73943803  0.33654619    -0.74600
O539        O  0.46888579  0.77503821  0.26110847    -0.74500
O540        O  0.49536963  0.70157528  0.26498058    -0.74600
Ni541      Ni  0.02648572  0.75395902  0.26101972     1.25400
Ni542      Ni  0.48071830  0.73778690  0.26323242     1.25400
C543        C  0.02097672  0.69674038  0.26426726     0.86500
C544        C  0.48572926  0.79483147  0.25925658     0.87600
C545        C  0.00378286  0.74681869  0.35920205     0.87600
C546        C  0.00391272  0.74480336  0.16500150     0.87800
O547        O  0.01263909  0.72496455  0.43754410    -0.74500
O548        O  0.01168210  0.72346239  0.08490460    -0.74500
O549        O  0.47693809  0.71126935  0.51302371    -0.74600
O550        O  0.04844823  0.73651798  0.00941383    -0.74600
O551        O  0.03514127  0.78030373  0.51049655    -0.74600
O552        O  0.45953572  0.75368504  0.01462454    -0.74600
O553        O  0.49666253  0.76648603  0.08584974    -0.74500
O554        O  0.49726184  0.76782623  0.44004284    -0.74600
Ni555      Ni  0.01204372  0.72209440  0.01159742     1.25400
Ni556      Ni  0.49591272  0.76809457  0.01273085     1.25400
C557        C  0.00446374  0.74649979  0.41489708     0.87700
C558        C  0.00404377  0.74485436  0.10925891     0.87600
C559        C  0.45486827  0.72802785  0.01463859     0.87600
C560        C  0.05308578  0.76220516  0.00893892     0.87800
C561        C  0.02943904  0.62097418  0.29365646    -0.05900
C562        C  0.05057673  0.61363677  0.25940726     0.00100
C563        C  0.06263611  0.63406437  0.22803447    -0.08500
C564        C  0.05266046  0.66099502  0.23169373    -0.05900
C565        C  0.03095618  0.66808616  0.26486378     0.00100
C566        C  0.01936628  0.64780510  0.29715280    -0.08400
C567        C  0.99688055  0.65433443  0.33604660     0.62000
H568        H  0.02069385  0.60529117  0.31781631     0.12700
H569        H  0.56143460  0.67684588  0.20763170     0.12700
C570        C  0.08541654  0.62757798  0.18991482     0.62200
F571        F  0.99183415  0.63270089  0.36876572    -0.23000
F572        F  0.97299734  0.66021480  0.31120822    -0.20300
F573        F  0.00425581  0.67640783  0.36548846    -0.20000
F574        F  0.57791161  0.60625760  0.15861599    -0.20000
F575        F  0.10864378  0.62071015  0.21590409    -0.20400
F576        F  0.59148859  0.64967641  0.15858536    -0.23000
C577        C  0.13942890  0.55644964  0.23247230    -0.05900
C578        C  0.11968056  0.53928564  0.25461019     0.00100
C579        C  0.12831960  0.51431400  0.27676933    -0.08500
C580        C  0.15598228  0.50677618  0.27238614    -0.05900
C581        C  0.17566560  0.52367033  0.24918877     0.00100
C582        C  0.16732133  0.54955713  0.23036697    -0.08400
C583        C  0.18735450  0.57005682  0.20789436     0.62000
H584        H  0.13276208  0.57550851  0.21633790     0.12700
H585        H  0.16272719  0.98804092  0.28980965     0.12700
C586        C  0.10921141  0.99673218  0.30904994     0.62200
F587        F  0.17440532  0.59292969  0.18901491    -0.23000
F588        F  0.20212533  0.55834110  0.16799783    -0.20300
F589        F  0.20480031  0.57869423  0.24543214    -0.20000
F590        F  0.09205042  0.98301750  0.27673616    -0.20000
F591        F  0.09403291  0.01238081  0.34324764    -0.20400
F592        F  0.12316025  0.97749417  0.33714194    -0.23000
C593        C  0.23136824  0.86998565  0.52117457    -0.05900
C594        C  0.20883657  0.86304919  0.49152703     0.00100
C595        C  0.19668066  0.88035289  0.95709199    -0.08500
C596        C  0.20670212  0.90727744  0.96048715    -0.05900
C597        C  0.22835352  0.91777921  0.49589493     0.00100
C598        C  0.24116200  0.89691882  0.52447827    -0.08400
C599        C  0.26455036  0.90302770  0.55979931     0.62000
H600        H  0.24136325  0.85393552  0.54217885     0.12700
H601        H  0.19801361  0.92318759  0.93718049     0.12700
C602        C  0.17424262  0.87410614  0.91973400     0.62200
F603        F  0.27073730  0.88097020  0.59045482    -0.23000
F604        F  0.25307453  0.92179319  0.09290470    -0.20300
F605        F  0.28760739  0.90944704  0.53128668    -0.20000
F606        F  0.15058683  0.86751793  0.94629277    -0.20000
F607        F  0.17700641  0.85764472  0.39722954    -0.20400
F608        F  0.16861860  0.89615319  0.88866296    -0.23000
C609        C  0.12157563  0.80206841  0.52759630    -0.05900
C610        C  0.13870889  0.78996601  0.49031897     0.00100
C611        C  0.12425199  0.77104138  0.95289562    -0.08500
C612        C  0.09703426  0.76292090  0.96118165    -0.05900
C613        C  0.08159791  0.77198527  0.00362099     0.00100
C614        C  0.09415165  0.79415186  0.53462596    -0.08400
C615        C  0.07690953  0.80737267  0.57664416     0.62000
H616        H  0.13003228  0.81762931  0.55186189     0.12700
H617        H  0.08747677  0.74935279  0.93432152     0.12700
C618        C  0.13961658  0.76129690  0.90529967     0.62200
F619        F  0.09213453  0.82431689  0.60714957    -0.23000
F620        F  0.06946056  0.77623389  0.11434765    -0.20300
F621        F  0.05653472  0.82285613  0.55524467    -0.20000
F622        F  0.15974019  0.74306664  0.91860914    -0.20000
F623        F  0.15596980  0.77791433  0.38459983    -0.20400
F624        F  0.12262201  0.74834578  0.87146346    -0.23000
C625        C  0.48046969  0.49557996  0.28110070    -0.05900
C626        C  0.48231397  0.97597197  0.24198859     0.00100
C627        C  0.00427024  0.97719457  0.20638475    -0.08500
C628        C  0.02363306  0.99810377  0.21084803    -0.05900
C629        C  0.02173217  0.51768048  0.24956786     0.00100
C630        C  0.49998972  0.51633543  0.28578704    -0.08400
C631        C  0.49796044  0.53590727  0.33065728     0.62000
H632        H  0.46374413  0.49417819  0.30850495     0.12700
H633        H  0.04045204  0.99938921  0.18363239     0.12700
C634        C  0.00670937  0.95706142  0.16241115     0.62200
F635        F  0.47779658  0.52837892  0.36549094    -0.23000
F636        F  0.49185136  0.56171593  0.31326676    -0.20300
F637        F  0.02255536  0.53613801  0.35648262    -0.20000
F638        F  0.98259344  0.95644607  0.13603192    -0.20000
F639        F  0.01234706  0.93135171  0.18095917    -0.20400
F640        F  0.02735954  0.96403668  0.12817698    -0.23000
C641        C  0.37821652  0.97133116  0.27246370    -0.05900
C642        C  0.38588380  0.94860857  0.24282099     0.00100
C643        C  0.36576729  0.93512522  0.21391771    -0.08500
C644        C  0.33878115  0.94520299  0.21552169    -0.05900
C645        C  0.33130905  0.96826281  0.24446186     0.00100
C646        C  0.35132364  0.98133331  0.27426278    -0.08400
C647        C  0.34449568  0.50529300  0.30914189     0.62000
H648        H  0.39368650  0.98133548  0.29454729     0.12700
H649        H  0.32325580  0.93531407  0.19339946     0.12700
C650        C  0.37269799  0.91075611  0.18028646     0.62200
F651        F  0.36579801  0.51168091  0.34082637    -0.23000
F652        F  0.32219086  0.49908350  0.33995649    -0.20300
F653        F  0.33885353  0.52809080  0.28018487    -0.20000
F654        F  0.37934130  0.88872217  0.21049599    -0.20000
F655        F  0.39441572  0.91690081  0.14793925    -0.20400
F656        F  0.35104584  0.90325627  0.15032469    -0.23000
C657        C  0.48695464  0.84270831  0.28882537    -0.05900
C658        C  0.47542093  0.82331098  0.25648057     0.00100
C659        C  0.45518015  0.83166672  0.22164810    -0.08500
C660        C  0.44725706  0.85930222  0.22067259    -0.05900
C661        C  0.45908373  0.87876988  0.25256928     0.00100
C662        C  0.47904834  0.87030675  0.28788361    -0.08400
C663        C  0.99183214  0.88992588  0.32533616     0.62000
H664        H  0.00245072  0.83588084  0.31501045     0.12700
H665        H  0.43205954  0.86608860  0.19403902     0.12700
C666        C  0.44281012  0.81186305  0.18405386     0.62200
F667        F  0.00643717  0.87643556  0.36238316    -0.23000
F668        F  0.97171957  0.90505935  0.35001719    -0.20300
F669        F  0.00949743  0.90717842  0.29954632    -0.20000
F670        F  0.42710673  0.79292311  0.21006324    -0.20000
F671        F  0.46326828  0.79863988  0.15669808    -0.20400
F672        F  0.42632669  0.82494304  0.14936513    -0.23000
C673        C  0.25148962  0.71787723  0.01438341    -0.05900
C674        C  0.27906667  0.72624216  0.48252828     0.00100
C675        C  0.28197917  0.75128728  0.45570029    -0.08500
C676        C  0.26039092  0.77041517  0.45796587    -0.05900
C677        C  0.23638796  0.76570301  0.48675833     0.00100
C678        C  0.22978253  0.73670439  0.01359307    -0.08400
C679        C  0.20384506  0.73006126  0.04367784     0.62000
H680        H  0.24946868  0.69936170  0.03651914     0.12700
H681        H  0.26211866  0.78937549  0.43709884     0.12700
C682        C  0.30744143  0.75787150  0.42425877     0.62200
F683        F  0.20676750  0.70705051  0.07366932    -0.23000
F684        F  0.18733565  0.72954346  0.52449454    -0.20300
F685        F  0.19683639  0.75145262  0.07579657    -0.20000
F686        F  0.31339269  0.73679486  0.39070117    -0.20000
F687        F  0.32599329  0.75649820  0.95164377    -0.20400
F688        F  0.30432943  0.78139310  0.39576254    -0.23000
C689        C  0.37871426  0.71773970  0.04175059    -0.05900
C690        C  0.37273411  0.69689191  0.00685963     0.00100
C691        C  0.39730962  0.68496367  0.47401885    -0.08500
C692        C  0.42371847  0.69525833  0.48122132    -0.05900
C693        C  0.42636699  0.71783061  0.01405807     0.00100
C694        C  0.40524094  0.72829645  0.04633894    -0.08400
C695        C  0.41071076  0.74987766  0.08650564     0.62000
H696        H  0.36226584  0.72580619  0.06546817     0.12700
H697        H  0.44087989  0.68596097  0.46124354     0.12700
C698        C  0.39349749  0.66114291  0.43778395     0.62200
F699        F  0.38832706  0.75418735  0.11850349    -0.23000
F700        F  0.41738791  0.77693255  0.55057607    -0.20300
F701        F  0.43217083  0.74176479  0.11646051    -0.20000
F702        F  0.37446461  0.66775183  0.40151424    -0.20000
F703        F  0.38216561  0.64010967  0.95968420    -0.20400
F704        F  0.41747165  0.65416738  0.41223210    -0.23000
C705        C  0.28239517  0.62018185  0.45276081    -0.05900
C706        C  0.30193917  0.62828829  0.48820331     0.00100
C707        C  0.31186791  0.60483763  0.03029470    -0.08500
C708        C  0.30148937  0.57808030  0.02743138    -0.05900
C709        C  0.28090901  0.57437856  0.48865616     0.00100
C710        C  0.27157165  0.59360161  0.45243177    -0.08400
C711        C  0.25071028  0.58598513  0.41285906     0.62000
H712        H  0.27553211  0.63502469  0.42518079     0.12700
H713        H  0.30916965  0.56240684  0.05252715     0.12700
C714        C  0.33294779  0.61139336  0.07016136     0.62200
F715        F  0.24686665  0.60660631  0.37762849    -0.23000
F716        F  0.22593763  0.58083252  0.43677174    -0.20300
F717        F  0.25761696  0.56218935  0.89190647    -0.20000
F718        F  0.32065500  0.64068685  0.59138388    -0.20000
F719        F  0.35759763  0.61716270  0.04641087    -0.20400
F720        F  0.33702580  0.58980731  0.10321305    -0.23000
C721        C  0.34597058  0.69025490  0.49167200     0.80100
N722        N  0.33789151  0.66377156  0.49160552    -0.78200
C723        C  0.30995452  0.65436534  0.99801689     0.82600
N724        N  0.29078316  0.67415898  0.99226464    -0.78100
C725        C  0.29768820  0.70095767  0.99153519     0.82700
N726        N  0.32689159  0.71026805  0.48781048    -0.79800
C727        C  0.41909249  0.94137181  0.74895653     0.80100
N728        N  0.42635529  0.91464260  0.75337333    -0.78200
C729        C  0.45307598  0.90727236  0.75630103     0.82600
N730        N  0.47245305  0.92684562  0.75387316    -0.78100
C731        C  0.46564548  0.95349779  0.74938953     0.82700
N732        N  0.43893822  0.96064799  0.74764860    -0.79800
C733        C  0.19995664  0.83029340  0.98568727     0.80100
N734        N  0.17312728  0.82327337  0.98675334    -0.78200
C735        C  0.16557898  0.79663112  0.98510688     0.82600
N736        N  0.18506486  0.77700284  0.98402480    -0.78100
C737        C  0.21189123  0.78337525  0.98457208     0.82700
N738        N  0.21921046  0.81014926  0.98508028    -0.79800
O739        O  0.26343781  0.51630456  0.81738423    -0.74500
O740        O  0.26340667  0.51813805  0.67048074    -0.74500
O741        O  0.22645068  0.52955309  0.74586431    -0.74600
O742        O  0.30074830  0.50544735  0.74245565    -0.74600
O743        O  0.28732045  0.96225754  0.74176435    -0.74600
O744        O  0.21238546  0.98647035  0.74339520    -0.74600
O745        O  0.25004332  0.97473957  0.66951386    -0.74500
O746        O  0.24930022  0.97316842  0.81561164    -0.74600
Ni747      Ni  0.26402397  0.51888375  0.74403262     1.25400
Ni748      Ni  0.24928612  0.97260949  0.74248216     1.25400
C749        C  0.25626763  0.99436978  0.84040101     0.87700
C750        C  0.25649336  0.99666676  0.64607525     0.87600
C751        C  0.20718478  0.51212433  0.74529974     0.87600
C752        C  0.30647303  0.97999294  0.74278780     0.87800
O753        O  0.22065372  0.96629796  0.49614440    -0.74500
O754        O  0.24544683  0.53722972  0.99347729    -0.74500
O755        O  0.23374655  0.50040177  0.92017576    -0.74600
O756        O  0.23409198  0.50409861  0.56791087    -0.74600
O757        O  0.27709861  0.98931765  0.56490822    -0.74600
O758        O  0.27680795  0.98587184  0.92006549    -0.74600
O759        O  0.28863981  0.52618204  0.49054184    -0.74500
O760        O  0.26334738  0.94840918  0.99323006    -0.74600
Ni761      Ni  0.23136005  0.50063047  0.99330660     1.25400
Ni762      Ni  0.27740993  0.98507859  0.99344957     1.25400
C763        C  0.23777761  0.94322942  0.99322107     0.87700
C764        C  0.27104388  0.54225350  0.99340993     0.87600
C765        C  0.25561839  0.99353827  0.89618413     0.87600
C766        C  0.25591726  0.99693063  0.59030633     0.87800
C767        C  0.06184578  0.58408836  0.74774155     0.80100
N768        N  0.08839031  0.57606346  0.74464145    -0.78200
C769        C  0.09492924  0.54911945  0.74125754     0.82600
N770        N  0.07475643  0.53025261  0.74258912    -0.78100
C771        C  0.04819427  0.53798533  0.74681983     0.82700
N772        N  0.04199314  0.56491393  0.74901439    -0.79800
O773        O  0.04007304  0.71561561  0.76174473    -0.74500
O774        O  0.01297093  0.78927000  0.76194940    -0.74500
O775        O  0.02583787  0.75254178  0.83521492    -0.74600
O776        O  0.02743531  0.75248904  0.68871804    -0.74600
O777        O  0.48503343  0.73642248  0.68880519    -0.74600
O778        O  0.48301059  0.73762057  0.83541377    -0.74600
O779        O  0.47049237  0.77377368  0.76072863    -0.74500
O780        O  0.49749863  0.70024065  0.76331762    -0.74600
Ni781      Ni  0.02810225  0.75302730  0.76195984     1.25400
Ni782      Ni  0.48249835  0.73645475  0.76209619     1.25400
C783        C  0.02317853  0.69576948  0.76265968     0.86500
C784        C  0.48725852  0.79367822  0.76068997     0.87600
C785        C  0.00415077  0.74520188  0.85920743     0.87600
C786        C  0.00647745  0.74444011  0.66481385     0.87800
O787        O  0.01128180  0.72365648  0.93850291    -0.74500
O788        O  0.01450365  0.72378106  0.58397940    -0.74500
O789        O  0.47460856  0.71085116  0.01335340    -0.74600
O790        O  0.05052355  0.73759896  0.50764192    -0.74600
O791        O  0.03339669  0.77939946  0.01074970    -0.74600
O792        O  0.46156720  0.75395190  0.51555343    -0.74600
O793        O  0.49909370  0.76660011  0.58630969    -0.74500
O794        O  0.49620485  0.76661809  0.93936328    -0.74600
Ni795      Ni  0.01422959  0.72288240  0.51057030     1.25400
Ni796      Ni  0.49775058  0.76870369  0.51329336     1.25400
C797        C  0.00375625  0.74515123  0.91500081     0.87700
C798        C  0.00681066  0.74494836  0.60902540     0.87600
C799        C  0.45705779  0.72828039  0.51456401     0.87600
C800        C  0.05500308  0.76332422  0.50783518     0.87800
C801        C  0.03515394  0.62042530  0.79125658    -0.05900
C802        C  0.05404255  0.61331341  0.75245306     0.00100
C803        C  0.06301758  0.63356117  0.71741610    -0.08500
C804        C  0.05302384  0.66039784  0.72322289    -0.05900
C805        C  0.03361199  0.66730007  0.76125517     0.00100
C806        C  0.02450964  0.64700201  0.79607194    -0.08400
C807        C  0.00388198  0.65329329  0.83849948     0.62000
H808        H  0.02843368  0.60470969  0.81756239     0.12700
H809        H  0.55961870  0.67611480  0.69681944     0.12700
C810        C  0.08180028  0.62664615  0.67244538     0.62200
F811        F  0.00065846  0.63162503  0.87189717    -0.23000
F812        F  0.97883043  0.65888832  0.81771387    -0.20300
F813        F  0.01234990  0.67551687  0.86640338    -0.20000
F814        F  0.57072918  0.60557205  0.64442335    -0.20000
F815        F  0.10703969  0.61888408  0.68983161    -0.20400
F816        F  0.58539689  0.64859341  0.63988378    -0.23000
C817        C  0.14009263  0.54733888  0.78166130    -0.05900
C818        C  0.12386031  0.54018312  0.74024917     0.00100
C819        C  0.13531975  0.52431462  0.69987155    -0.08500
C820        C  0.16241556  0.51504284  0.70360801    -0.05900
C821        C  0.17854471  0.52191598  0.74532735     0.00100
C822        C  0.16736545  0.53855191  0.78491008    -0.08400
C823        C  0.18384244  0.54619282  0.83123962     0.62000
H824        H  0.13103181  0.55962350  0.81194907     0.12700
H825        H  0.17144796  0.00269959  0.67331073     0.12700
C826        C  0.11942951  0.01824832  0.65198246     0.62200
F827        F  0.16839788  0.56036731  0.86729746    -0.23000
F828        F  0.20546877  0.56248656  0.81652944    -0.20300
F829        F  0.19359058  0.52285449  0.85414244    -0.20000
F830        F  0.10955439  0.04228837  0.63179634    -0.20000
F831        F  0.09793244  0.00120386  0.66366355    -0.20400
F832        F  0.13547751  0.00568010  0.61473276    -0.23000
C833        C  0.22963935  0.86669602  0.02041280    -0.05900
C834        C  0.20845072  0.85961288  0.98764224     0.00100
C835        C  0.19531977  0.88412611  0.46445307    -0.08500
C836        C  0.20538606  0.91105827  0.46723573    -0.05900
C837        C  0.22813411  0.91425537  0.99282796     0.00100
C838        C  0.23949405  0.89362211  0.02409284    -0.08400
C839        C  0.26129148  0.90003128  0.06264738     0.62000
H840        H  0.23839503  0.85080930  0.04368705     0.12700
H841        H  0.19551869  0.92718768  0.44622845     0.12700
C842        C  0.17087049  0.87835279  0.43149601     0.62200
F843        F  0.26624735  0.87818006  0.09461229    -0.23000
F844        F  0.25767804  0.92461747  0.59159126    -0.20300
F845        F  0.28540252  0.90638083  0.03741538    -0.20000
F846        F  0.14892643  0.87086010  0.46216127    -0.20000
F847        F  0.18197921  0.85256949  0.88848772    -0.20400
F848        F  0.16316977  0.90096238  0.40360061    -0.23000
C849        C  0.12084449  0.79807981  0.03089742    -0.05900
C850        C  0.13640501  0.78871372  0.98877522     0.00100
C851        C  0.12788345  0.76959799  0.45791078    -0.08500
C852        C  0.10060522  0.76142457  0.46552365    -0.05900
C853        C  0.08356280  0.77335667  0.50306972     0.00100
C854        C  0.09363889  0.78978554  0.03931105    -0.08400
C855        C  0.07830402  0.79883841  0.08734232     0.62000
H856        H  0.13049655  0.81138135  0.05807681     0.12700
H857        H  0.09216202  0.74574143  0.44149613     0.12700
C858        C  0.14444089  0.75735181  0.41380507     0.62200
F859        F  0.09449548  0.81411105  0.11913288    -0.23000
F860        F  0.06540576  0.78754157  0.60766493    -0.20300
F861        F  0.05611937  0.81460653  0.07449349    -0.20000
F862        F  0.16473847  0.74071881  0.43216842    -0.20000
F863        F  0.15129893  0.78323198  0.88017814    -0.20400
F864        F  0.12850646  0.74176677  0.38206442    -0.23000
C865        C  0.48364356  0.49753546  0.77981735    -0.05900
C866        C  0.48708335  0.97474478  0.74790212     0.00100
C867        C  0.01037216  0.97307961  0.71505198    -0.08500
C868        C  0.02957759  0.99426951  0.71592925    -0.05900
C869        C  0.02631220  0.51703838  0.74808267     0.00100
C870        C  0.50294437  0.51868308  0.78097718    -0.08400
C871        C  0.49847709  0.54213926  0.81819412     0.62000
H872        H  0.46568987  0.49850252  0.80433442     0.12700
H873        H  0.04734891  0.99324716  0.69111340     0.12700
C874        C  0.01475238  0.94948182  0.67812061     0.62200
F875        F  0.47708224  0.53720293  0.85210545    -0.23000
F876        F  0.49244126  0.56562207  0.79154149    -0.20300
F877        F  0.02161423  0.54611271  0.84656519    -0.20000
F878        F  0.99154503  0.94537815  0.65007238    -0.20000
F879        F  0.02080971  0.92607377  0.70494750    -0.20400
F880        F  0.03606142  0.95430888  0.64396549    -0.23000
C881        C  0.38251841  0.97435313  0.77262858    -0.05900
C882        C  0.38987582  0.95010526  0.74721595     0.00100
C883        C  0.36976302  0.93615366  0.71911349    -0.08500
C884        C  0.34292564  0.94660623  0.71898024    -0.05900
C885        C  0.33557118  0.97084488  0.74446730     0.00100
C886        C  0.35589001  0.98515259  0.77164446    -0.08400
C887        C  0.34979253  0.51154621  0.80028217     0.62000
H888        H  0.39806146  0.98498279  0.79346702     0.12700
H889        H  0.32737775  0.93595398  0.69819161     0.12700
C890        C  0.37655100  0.91087868  0.68784791     0.62200
F891        F  0.37161287  0.51999833  0.82891734    -0.23000
F892        F  0.32783399  0.50800942  0.83347441    -0.20300
F893        F  0.34407873  0.53203422  0.76581643    -0.20000
F894        F  0.38195162  0.88935221  0.72015633    -0.20000
F895        F  0.39899188  0.91569863  0.65642879    -0.20400
F896        F  0.35526360  0.90337510  0.65699893    -0.23000
C897        C  0.48922549  0.84107937  0.79280425    -0.05900
C898        C  0.47700448  0.82228378  0.76007654     0.00100
C899        C  0.45629097  0.83141572  0.72694922    -0.08500
C900        C  0.44870214  0.85918004  0.72784495    -0.05900
C901        C  0.46125324  0.87806478  0.76004334     0.00100
C902        C  0.48164644  0.86878330  0.79380159    -0.08400
C903        C  0.99519361  0.88770484  0.83154494     0.62000
H904        H  0.00501360  0.83380947  0.81769051     0.12700
H905        H  0.43324340  0.86654070  0.70229949     0.12700
C906        C  0.44300283  0.81230516  0.68925122     0.62200
F907        F  0.00989502  0.87339962  0.86738775    -0.23000
F908        F  0.97569515  0.90295485  0.85766594    -0.20300
F909        F  0.01298218  0.90489236  0.80595293    -0.20000
F910        F  0.42744910  0.79329103  0.71539261    -0.20000
F911        F  0.46278840  0.79910971  0.66007983    -0.20400
F912        F  0.42612249  0.82608830  0.65621704    -0.23000
C913        C  0.25519872  0.72171403  0.51153231    -0.05900
C914        C  0.27604803  0.72224378  0.98746522     0.00100
C915        C  0.27882672  0.74605366  0.95702731    -0.08500
C916        C  0.25746959  0.76541311  0.95745058    -0.05900
C917        C  0.23305060  0.76132586  0.98532101     0.00100
C918        C  0.23411347  0.74114351  0.51530868    -0.08400
C919        C  0.21029830  0.73563967  0.55178292     0.62000
H920        H  0.25338145  0.70276564  0.53242435     0.12700
H921        H  0.25960952  0.78392609  0.93532857     0.12700
C922        C  0.30360794  0.75062526  0.92249591     0.62200
F923        F  0.21546019  0.71385834  0.58380843    -0.23000
F924        F  0.18295681  0.72513961  0.01031427    -0.20300
F925        F  0.20530917  0.75818969  0.58232869    -0.20000
F926        F  0.30884742  0.72754984  0.89347438    -0.20000
F927        F  0.32911182  0.76175736  0.45635550    -0.20400
F928        F  0.29971663  0.77209877  0.88911171    -0.23000
C929        C  0.37999862  0.72001888  0.53210953    -0.05900
C930        C  0.37496669  0.69787846  0.49953035     0.00100
C931        C  0.39400294  0.68612065  0.97532045    -0.08500
C932        C  0.42047059  0.69671269  0.97983025    -0.05900
C933        C  0.42860199  0.71795535  0.51248614     0.00100
C934        C  0.40639989  0.73021021  0.53948948    -0.08400
C935        C  0.41036545  0.75351392  0.57687386     0.62000
H936        H  0.36283649  0.72952573  0.55173684     0.12700
H937        H  0.43685842  0.68884450  0.95572971     0.12700
C938        C  0.38876308  0.66428347  0.93561290     0.62200
F939        F  0.38689628  0.75899205  0.60525804    -0.23000
F940        F  0.41702243  0.77432886  0.06309205    -0.20300
F941        F  0.43065810  0.74693650  0.61071695    -0.20000
F942        F  0.36761429  0.67221160  0.90473963    -0.20000
F943        F  0.38485516  0.63857541  0.46492428    -0.20400
F944        F  0.41138790  0.65955236  0.90445014    -0.23000
C945        C  0.28120445  0.61776407  0.96240254    -0.05900
C946        C  0.30153587  0.62509035  0.99689962     0.00100
C947        C  0.31076310  0.60917774  0.52524065    -0.08500
C948        C  0.30047155  0.58239625  0.52396593    -0.05900
C949        C  0.28086707  0.57098327  0.99345485     0.00100
C950        C  0.27069119  0.59113196  0.95991789    -0.08400
C951        C  0.24935542  0.58450747  0.92057458     0.62000
H952        H  0.27346847  0.63329272  0.93707216     0.12700
H953        H  0.30730548  0.56747704  0.55144147     0.12700
C954        C  0.32990426  0.61714738  0.56758680     0.62200
F955        F  0.24520788  0.60594590  0.88723373    -0.23000
F956        F  0.22480431  0.57890067  0.94491873    -0.20300
F957        F  0.25931856  0.56303613  0.38643858    -0.20000
F958        F  0.32446349  0.63354677  0.09910638    -0.20000
F959        F  0.35572512  0.62137563  0.54752836    -0.20400
F960        F  0.33165684  0.59708508  0.60455152    -0.23000
C961        C  0.84375854  0.18853712  0.00196021     0.80100
N962        N  0.83648848  0.16178186  0.00246509    -0.78200
C963        C  0.81110608  0.15732451  0.48713201     0.82600
N964        N  0.79243123  0.17768062  0.48241928    -0.78100
C965        C  0.80013396  0.20429236  0.48251066     0.82700
N966        N  0.82417297  0.20796507  0.99705467    -0.79800
C967        C  0.91537218  0.44077559  0.24204882     0.80100
N968        N  0.92337624  0.41425610  0.24568321    -0.78200
C969        C  0.95029142  0.40763193  0.24773496     0.82600
N970        N  0.96913327  0.42772055  0.24525677    -0.78100
C971        C  0.96154565  0.45419388  0.24159405     0.82700
N972        N  0.93464298  0.46064733  0.24089847    -0.79800
C973        C  0.70108388  0.33357201  0.48879701     0.80100
N974        N  0.67449814  0.32566851  0.48951413    -0.78200
C975        C  0.66775395  0.29879120  0.48742417     0.82600
N976        N  0.68790430  0.27981429  0.48634459    -0.78100
C977        C  0.71451321  0.28709513  0.48691822     0.82700
N978        N  0.72094934  0.31405416  0.48775555    -0.79800
O979        O  0.76123105  0.01715510  0.31582994    -0.74500
O980        O  0.76075587  0.01589485  0.16918860    -0.74500
O981        O  0.72433882  0.02993502  0.24429814    -0.74600
O982        O  0.79776080  0.00360111  0.24137640    -0.74600
O983        O  0.78297505  0.46080282  0.24334019    -0.74600
O984        O  0.70895650  0.48750107  0.24602314    -0.74600
O985        O  0.74561923  0.47310129  0.17136257    -0.74500
O986        O  0.74595562  0.47440956  0.31750181    -0.74600
Ni987      Ni  0.76154748  0.01815117  0.24249530     1.25400
Ni988      Ni  0.74532139  0.47241820  0.24453252     1.25400
C989        C  0.75359785  0.49593151  0.34053032     0.87700
C990        C  0.75316817  0.49419016  0.14634691     0.87600
C991        C  0.70443604  0.01325926  0.24605195     0.87600
C992        C  0.80260726  0.47800599  0.24299184     0.87800
O993        O  0.72038242  0.46284934  0.99286859    -0.74500
O994        O  0.74563694  0.04070083  0.49249059    -0.74500
O995        O  0.73247532  0.00315706  0.42137072    -0.74600
O996        O  0.73207355  0.00023450  0.06664504    -0.74600
O997        O  0.77512301  0.48569916  0.06670637    -0.74600
O998        O  0.77562092  0.48887512  0.41876913    -0.74600
O999        O  0.78845893  0.02273460  0.99388047    -0.74500
O1000       O  0.76366738  0.45192230  0.49322060    -0.74600
Ni1001     Ni  0.73168992  0.00409479  0.49465821     1.25400
Ni1002     Ni  0.77776776  0.48855897  0.49177239     1.25400
C1003       C  0.73809188  0.44676620  0.49534236     0.87700
C1004       C  0.77121353  0.04573101  0.49043611     0.87600
C1005       C  0.75389256  0.49606452  0.39619803     0.87600
C1006       C  0.75342546  0.49332080  0.09057230     0.87800
C1007       C  0.55791186  0.08421021  0.25554833     0.80100
N1008       N  0.58429996  0.07562352  0.25604801    -0.78200
C1009       C  0.59056461  0.04853510  0.25409139     0.82600
N1010       N  0.57002007  0.03022903  0.25089662    -0.78100
C1011       C  0.54359594  0.03839595  0.25160500     0.82700
N1012       N  0.53768458  0.06540225  0.25387732    -0.79800
O1013       O  0.53812538  0.21644907  0.26195618    -0.74500
O1014       O  0.51149571  0.29034828  0.26020363    -0.74500
O1015       O  0.52511668  0.25414784  0.33421614    -0.74600
O1016       O  0.52515304  0.25282597  0.18811050    -0.74600
O1017       O  0.98254000  0.23718075  0.18972347    -0.74600
O1018       O  0.98217423  0.23941674  0.33645489    -0.74600
O1019       O  0.96890112  0.27501197  0.26099793    -0.74500
O1020       O  0.99534951  0.20154143  0.26490897    -0.74600
Ni1021     Ni  0.52649360  0.25400147  0.26109437     1.25400
Ni1022     Ni  0.98071592  0.23775767  0.26313924     1.25400
C1023       C  0.52102053  0.19677537  0.26429414     0.86500
C1024       C  0.98575516  0.29479546  0.25914306     0.87600
C1025       C  0.50379834  0.24683120  0.35927552     0.87600
C1026       C  0.50392203  0.24484164  0.16507585     0.87800
O1027       O  0.51266358  0.22497628  0.43761241    -0.74500
O1028       O  0.51170008  0.22349041  0.08499278    -0.74500
O1029       O  0.97691509  0.21127857  0.51294842    -0.74600
O1030       O  0.54845616  0.23654987  0.00949049    -0.74600
O1031       O  0.53512208  0.28032892  0.51058023    -0.74600
O1032       O  0.95954898  0.25369655  0.01453606    -0.74600
O1033       O  0.99668092  0.26645818  0.08577413    -0.74500
O1034       O  0.99727646  0.26781193  0.43994450    -0.74600
Ni1035     Ni  0.51206010  0.22210664  0.01168671     1.25400
Ni1036     Ni  0.99593330  0.26808622  0.01265655     1.25400
C1037       C  0.50447695  0.24650832  0.41496960     0.87700
C1038       C  0.50405288  0.24488379  0.10933359     0.87600
C1039       C  0.95486839  0.22804203  0.01453033     0.87600
C1040       C  0.55308016  0.26223933  0.00899786     0.87800
C1041       C  0.52951967  0.12099257  0.29353347    -0.05900
C1042       C  0.55062865  0.11367189  0.25920851     0.00100
C1043       C  0.56266723  0.13411977  0.22785461    -0.08500
C1044       C  0.55269939  0.16105119  0.23160358    -0.05900
C1045       C  0.53101513  0.16812355  0.26483405     0.00100
C1046       C  0.51944785  0.14782241  0.29710639    -0.08400
C1047       C  0.49697803  0.15432671  0.33604518     0.62000
H1048       H  0.52078772  0.10529372  0.31767517     0.12700
H1049       H  0.06144018  0.17675687  0.20771182     0.12700
C1050       C  0.58542169  0.12765709  0.18967214     0.62200
F1051       F  0.49195850  0.13267833  0.36874317    -0.23000
F1052       F  0.47308039  0.16020424  0.31125234    -0.20300
F1053       F  0.50435570  0.17639348  0.36550240    -0.20000
F1054       F  0.07793616  0.10614672  0.15890746    -0.20000
F1055       F  0.60866330  0.12078693  0.21560393    -0.20400
F1056       F  0.09154723  0.14955384  0.15884140    -0.23000
C1057       C  0.63954004  0.05668874  0.23361170    -0.05900
C1058       C  0.61965120  0.03919035  0.25430637     0.00100
C1059       C  0.62818166  0.01385915  0.27521342    -0.08500
C1060       C  0.65587418  0.00639737  0.27100930    -0.05900
C1061       C  0.67569784  0.02364473  0.24922151     0.00100
C1062       C  0.66744517  0.04983741  0.23173911    -0.08400
C1063       C  0.68757656  0.07074176  0.21099253     0.62000
H1064       H  0.63298381  0.07600309  0.21844012     0.12700
H1065       H  0.66241946  0.48719016  0.28675768     0.12700
C1066       C  0.60880914  0.49541461  0.30507524     0.62200
F1067       F  0.67472547  0.09400090  0.19355068    -0.23000
F1068       F  0.70248298  0.05980786  0.17048784    -0.20300
F1069       F  0.70487849  0.07860463  0.24935680    -0.20000
F1070       F  0.59186244  0.48250236  0.27124024    -0.20000
F1071       F  0.59343268  0.51024335  0.34025244    -0.20400
F1072       F  0.62256611  0.47549231  0.33182220    -0.23000
C1073       C  0.73137051  0.37003486  0.52115661    -0.05900
C1074       C  0.70883180  0.36311355  0.49151525     0.00100
C1075       C  0.69666075  0.38040876  0.95722078    -0.08500
C1076       C  0.70669352  0.40732897  0.96060135    -0.05900
C1077       C  0.72838145  0.41782889  0.49588481     0.00100
C1078       C  0.74118166  0.39696072  0.52445880    -0.08400
C1079       C  0.76458085  0.40305312  0.55976421     0.62000
H1080       H  0.74135810  0.35397807  0.54215585     0.12700
H1081       H  0.69800073  0.42324250  0.93730847     0.12700
C1082       C  0.67419630  0.37417467  0.91991113     0.62200
F1083       F  0.77076134  0.38098972  0.59040947    -0.23000
F1084       F  0.75308732  0.42183259  0.09298072    -0.20300
F1085       F  0.78763569  0.40946073  0.53123514    -0.20000
F1086       F  0.65055484  0.36759132  0.94652081    -0.20000
F1087       F  0.67699248  0.35773040  0.39722118    -0.20400
F1088       F  0.66855879  0.39622785  0.88886416    -0.23000
C1089       C  0.62155031  0.30214984  0.52760312    -0.05900
C1090       C  0.63868195  0.29004947  0.49032062     0.00100
C1091       C  0.62424132  0.27109986  0.95294986    -0.08500
C1092       C  0.59702426  0.26297633  0.96123015    -0.05900
C1093       C  0.58158747  0.27203182  0.00367537     0.00100
C1094       C  0.59412961  0.29422431  0.53464851    -0.08400
C1095       C  0.57688422  0.30745225  0.57665396     0.62000
H1096       H  0.63000563  0.31771551  0.55185966     0.12700
H1097       H  0.58746880  0.24941001  0.93436440     0.12700
C1098       C  0.63960773  0.26136101  0.90535169     0.62200
F1099       F  0.59210313  0.32441580  0.60713278    -0.23000
F1100       F  0.56945817  0.27626040  0.11441059    -0.20300
F1101       F  0.55650086  0.32291784  0.55523816    -0.20000
F1102       F  0.65972429  0.24312162  0.91865508    -0.20000
F1103       F  0.65592229  0.27802460  0.38458883    -0.20400
F1104       F  0.62261250  0.24842239  0.87150010    -0.23000
C1105       C  0.98061149  0.99544171  0.28169391    -0.05900
C1106       C  0.98239446  0.47592426  0.24234813     0.00100
C1107       C  0.50415947  0.47718958  0.20595371    -0.08500
C1108       C  0.52351052  0.49812154  0.21028263    -0.05900
C1109       C  0.52163512  0.01776718  0.24899208     0.00100
C1110       C  0.00016069  0.01615609  0.28654231    -0.08400
C1111       C  0.99820222  0.03559439  0.33162278     0.62000
H1112       H  0.96389519  0.99399001  0.30910867     0.12700
H1113       H  0.54034130  0.49935351  0.18308367     0.12700
C1114       C  0.50659928  0.45699205  0.16208486     0.62200
F1115       F  0.97804418  0.02800381  0.36641956    -0.23000
F1116       F  0.99214136  0.06147115  0.31453309    -0.20300
F1117       F  0.52233572  0.03651748  0.35574505    -0.20000
F1118       F  0.48247994  0.45633383  0.13571965    -0.20000
F1119       F  0.51224448  0.43131039  0.18075796    -0.20400
F1120       F  0.52724350  0.46392364  0.12780554    -0.23000
C1121       C  0.87828564  0.47133158  0.27248915    -0.05900
C1122       C  0.88595582  0.44861354  0.24283494     0.00100
C1123       C  0.86584730  0.43515346  0.21387414    -0.08500
C1124       C  0.83886426  0.44524143  0.21545495    -0.05900
C1125       C  0.83138917  0.46829227  0.24441944     0.00100
C1126       C  0.85139776  0.48134738  0.27425483    -0.08400
C1127       C  0.84458200  0.00533582  0.30910553     0.62000
H1128       H  0.89374918  0.48132123  0.29461099     0.12700
H1129       H  0.82334317  0.43536583  0.19330158     0.12700
C1130       C  0.87278327  0.41079830  0.18021020     0.62200
F1131       F  0.86587998  0.01172444  0.34079950    -0.23000
F1132       F  0.82227153  0.99913190  0.33990971    -0.20300
F1133       F  0.83894705  0.02813111  0.28013612    -0.20000
F1134       F  0.87940107  0.38874547  0.21039161    -0.20000
F1135       F  0.89451962  0.41694904  0.14791162    -0.20400
F1136       F  0.85114289  0.40332477  0.15019582    -0.23000
C1137       C  0.98701314  0.34265878  0.28874133    -0.05900
C1138       C  0.97546202  0.32327808  0.25638833     0.00100
C1139       C  0.95521855  0.33165188  0.22157838    -0.08500
C1140       C  0.94729401  0.35928712  0.22066141    -0.05900
C1141       C  0.95913263  0.37873858  0.25257685     0.00100
C1142       C  0.97911828  0.37025926  0.28784031    -0.08400
C1143       C  0.49170104  0.38997451  0.32542236     0.62000
H1144       H  0.50238275  0.33593182  0.31512952     0.12700
H1145       H  0.93208986  0.36608674  0.19405294     0.12700
C1146       C  0.94285317  0.31187008  0.18393879     0.62200
F1147       F  0.50629293  0.37650293  0.36251128    -0.23000
F1148       F  0.47154942  0.40508293  0.35004541    -0.20300
F1149       F  0.50936137  0.40725066  0.29967921    -0.20000
F1150       F  0.92714530  0.29291606  0.20990074    -0.20000
F1151       F  0.96331533  0.29866131  0.15656814    -0.20400
F1152       F  0.92637655  0.32497130  0.14926613    -0.23000
C1153       C  0.75147564  0.21791342  0.01432816    -0.05900
C1154       C  0.77903352  0.22630861  0.48253446     0.00100
C1155       C  0.78194413  0.25134952  0.45569187    -0.08500
C1156       C  0.76035607  0.27047685  0.45795126    -0.05900
C1157       C  0.73635423  0.26576776  0.48674783     0.00100
C1158       C  0.72977056  0.23674392  0.01357442    -0.08400
C1159       C  0.70383870  0.23009570  0.04367254     0.62000
H1160       H  0.74945646  0.19939115  0.03644432     0.12700
H1161       H  0.76208308  0.28943464  0.43707597     0.12700
C1162       C  0.80740394  0.25793015  0.42424025     0.62200
F1163       F  0.70676487  0.20707573  0.07363768    -0.23000
F1164       F  0.68730087  0.22961531  0.52448210    -0.20300
F1165       F  0.69684026  0.25147872  0.07581851    -0.20000
F1166       F  0.81335441  0.23684800  0.39069454    -0.20000
F1167       F  0.82597204  0.25655788  0.95160119    -0.20400
F1168       F  0.80428839  0.28144627  0.39572950    -0.23000
C1169       C  0.87871065  0.21778327  0.04163669    -0.05900
C1170       C  0.87272311  0.19694262  0.00673647     0.00100
C1171       C  0.89727234  0.18502669  0.47393949    -0.08500
C1172       C  0.92368635  0.19530939  0.48112990    -0.05900
C1173       C  0.92636245  0.21786021  0.01393977     0.00100
C1174       C  0.90524143  0.22832860  0.04622951    -0.08400
C1175       C  0.91072137  0.24989766  0.08641375     0.62000
H1176       H  0.86226589  0.22585014  0.06536294     0.12700
H1177       H  0.94084054  0.18600863  0.46113535     0.12700
C1178       C  0.89344431  0.16121293  0.43769438     0.62200
F1179       F  0.88833931  0.25421121  0.11841389    -0.23000
F1180       F  0.91741648  0.27696669  0.55056842    -0.20300
F1181       F  0.93217693  0.24176668  0.11636316    -0.20000
F1182       F  0.87440222  0.16783253  0.40144826    -0.20000
F1183       F  0.88213943  0.14016281  0.95953270    -0.20400
F1184       F  0.91740977  0.15423663  0.41211382    -0.23000
C1185       C  0.78238050  0.12023677  0.45277270    -0.05900
C1186       C  0.80191906  0.12835484  0.48821525     0.00100
C1187       C  0.81187639  0.10489210  0.03024972    -0.08500
C1188       C  0.80150996  0.07812942  0.02740032    -0.05900
C1189       C  0.78092657  0.07443096  0.48866392     0.00100
C1190       C  0.77157531  0.09364900  0.45244098    -0.08400
C1191       C  0.75071876  0.08602025  0.41286615     0.62000
H1192       H  0.77550845  0.13507577  0.42519340     0.12700
H1193       H  0.80919031  0.06246495  0.05251549     0.12700
C1194       C  0.83294842  0.11146570  0.07012103     0.62200
F1195       F  0.74686534  0.10663830  0.37763306    -0.23000
F1196       F  0.72594780  0.08085595  0.43677571    -0.20300
F1197       F  0.75769097  0.06218330  0.89184920    -0.20000
F1198       F  0.82062367  0.14076968  0.59139196    -0.20000
F1199       F  0.85759887  0.11724034  0.04637665    -0.20400
F1200       F  0.83703118  0.08988869  0.10319109    -0.23000
C1201       C  0.84594080  0.19032514  0.49164565     0.80100
N1202       N  0.83786300  0.16384231  0.49158593    -0.78200
C1203       C  0.80994904  0.15441118  0.99793619     0.82600
N1204       N  0.79077282  0.17420119  0.99218932    -0.78100
C1205       C  0.79767422  0.20100166  0.99145216     0.82700
N1206       N  0.82686011  0.21033741  0.48779927    -0.79800
C1207       C  0.91909432  0.44138979  0.74894679     0.80100
N1208       N  0.92636228  0.41466106  0.75334656    -0.78200
C1209       C  0.95308495  0.40729342  0.75624561     0.82600
N1210       N  0.97245882  0.42686968  0.75380671    -0.78100
C1211       C  0.96564622  0.45352165  0.74934181     0.82700
N1212       N  0.93893733  0.46066871  0.74762857    -0.79800
C1213       C  0.69994565  0.33034419  0.98577990     0.80100
N1214       N  0.67311617  0.32332514  0.98684879    -0.78200
C1215       C  0.66556670  0.29668391  0.98518021     0.82600
N1216       N  0.68505162  0.27705497  0.98407271    -0.78100
C1217       C  0.71187829  0.28342574  0.98461668     0.82700
N1218       N  0.71919880  0.31019928  0.98514652    -0.79800
O1219       O  0.76344212  0.01632400  0.81741162    -0.74500
O1220       O  0.76340621  0.01817401  0.67051444    -0.74500
O1221       O  0.72645085  0.02957667  0.74590615    -0.74600
O1222       O  0.80075158  0.00547100  0.74247906    -0.74600
O1223       O  0.78732163  0.46228006  0.74177197    -0.74600
O1224       O  0.71238767  0.48648684  0.74342781    -0.74600
O1225       O  0.75004089  0.47477229  0.66953044    -0.74500
O1226       O  0.74930630  0.47318396  0.81563365    -0.74600
Ni1227     Ni  0.76402584  0.01890936  0.74406444     1.25400
Ni1228     Ni  0.74928809  0.47263118  0.74250103     1.25400
C1229       C  0.75627219  0.49438537  0.84042620     0.87700
C1230       C  0.75648846  0.49670370  0.64610104     0.87600
C1231       C  0.70718652  0.01214567  0.74533875     0.87600
C1232       C  0.80647410  0.48001489  0.74280073     0.87800
O1233       O  0.72068894  0.46634296  0.49613803    -0.74500
O1234       O  0.74548006  0.03726490  0.99348330    -0.74500
O1235       O  0.73376142  0.00042841  0.92020924    -0.74600
O1236       O  0.73410817  0.00414557  0.56791229    -0.74600
O1237       O  0.77711287  0.48936646  0.56495234    -0.74600
O1238       O  0.77682002  0.48589295  0.92008259    -0.74600
O1239       O  0.78867299  0.02623384  0.49058537    -0.74500
O1240       O  0.76336415  0.44844367  0.99327279    -0.74600
Ni1241     Ni  0.73138887  0.00066877  0.99334247     1.25400
Ni1242     Ni  0.77743346  0.48511122  0.99346410     1.25400
C1243       C  0.73779275  0.44326944  0.99328704     0.87700
C1244       C  0.77107738  0.04228593  0.99339497     0.87600
C1245       C  0.75562705  0.49355575  0.89620922     0.87600
C1246       C  0.75592361  0.49697416  0.59033066     0.87800
C1247       C  0.56183373  0.08407088  0.74780736     0.80100
N1248       N  0.58837946  0.07605133  0.74470847    -0.78200
C1249       C  0.59492346  0.04910876  0.74133311     0.82600
N1250       N  0.57475492  0.03023747  0.74266918    -0.78100
C1251       C  0.54819111  0.03796501  0.74689867     0.82700
N1252       N  0.54198457  0.06489288  0.74908674    -0.79800
O1253       O  0.54007329  0.21560046  0.76180805    -0.74500
O1254       O  0.51297067  0.28925661  0.76203687    -0.74500
O1255       O  0.52583981  0.25252178  0.83528964    -0.74600
O1256       O  0.52743545  0.25248089  0.68879350    -0.74600
O1257       O  0.98503411  0.23643187  0.68871779    -0.74600
O1258       O  0.98301339  0.23764013  0.83532470    -0.74600
O1259       O  0.97049411  0.27378976  0.76063231    -0.74500
O1260       O  0.99750031  0.20025679  0.76323772    -0.74600
Ni1261     Ni  0.52810284  0.25301304  0.76203521     1.25400
Ni1262     Ni  0.98249988  0.23647040  0.76200807     1.25400
C1263       C  0.52317809  0.19575479  0.76272093     0.86500
C1264       C  0.98726074  0.29369404  0.76058863     0.87600
C1265       C  0.50415228  0.24518330  0.85928202     0.87600
C1266       C  0.50647776  0.24443363  0.66488713     0.87800
O1267       O  0.51129573  0.22365380  0.93859059    -0.74500
O1268       O  0.51452263  0.22378586  0.58404781    -0.74500
O1269       O  0.97459953  0.21085494  0.01323374    -0.74600
O1270       O  0.55053444  0.23763501  0.50771476    -0.74600
O1271       O  0.53338216  0.27942384  0.01079656    -0.74600
O1272       O  0.96157348  0.25397200  0.51546471    -0.74600
O1273       O  0.99911102  0.26660195  0.58621129    -0.74500
O1274       O  0.99622537  0.26662792  0.93928758    -0.74600
Ni1275     Ni  0.51425176  0.22289129  0.51063813     1.25400
Ni1276     Ni  0.99776806  0.26869731  0.51319481     1.25400
C1277       C  0.50375661  0.24513975  0.91507572     0.87700
C1278       C  0.50681213  0.24494562  0.60909805     0.87600
C1279       C  0.95704675  0.22830344  0.51448466     0.87600
C1280       C  0.55499544  0.26336370  0.50790726     0.87800
C1281       C  0.53516468  0.12041634  0.79134656    -0.05900
C1282       C  0.55402791  0.11329495  0.75250671     0.00100
C1283       C  0.56298156  0.13353337  0.71743202    -0.08500
C1284       C  0.55299226  0.16037178  0.72323614    -0.05900
C1285       C  0.53360912  0.16728494  0.76131232     0.00100
C1286       C  0.52453023  0.14699668  0.79617030    -0.08400
C1287       C  0.50394249  0.15330519  0.83865622     0.62000
H1288       H  0.52845955  0.10470652  0.81767899     0.12700
H1289       H  0.05966415  0.17614641  0.69681479     0.12700
C1290       C  0.58173900  0.12660573  0.67243130     0.62200
F1291       F  0.50073830  0.13164450  0.87207728    -0.23000
F1292       F  0.47887443  0.15890962  0.81794734    -0.20300
F1293       F  0.51244728  0.17552948  0.86651702    -0.20000
F1294       F  0.07079431  0.10561801  0.64437823    -0.20000
F1295       F  0.60698951  0.11885158  0.68977499    -0.20400
F1296       F  0.08546869  0.14863864  0.63990355    -0.23000
C1297       C  0.64008145  0.04731784  0.78175227    -0.05900
C1298       C  0.62385567  0.04017993  0.74032035     0.00100
C1299       C  0.63532315  0.02433844  0.69991406    -0.08500
C1300       C  0.66242217  0.01507540  0.70363757    -0.05900
C1301       C  0.67854539  0.02193143  0.74537474     0.00100
C1302       C  0.66735711  0.03853898  0.78498997    -0.08400
C1303       C  0.68382824  0.04615714  0.83133941     0.62000
H1304       H  0.63101358  0.05958186  0.81206250     0.12700
H1305       H  0.67145797  0.50274211  0.67332630     0.12700
C1306       C  0.61943284  0.51827913  0.65202086     0.62200
F1307       F  0.66837806  0.06030990  0.86741933    -0.23000
F1308       F  0.70545349  0.06246134  0.81666678    -0.20300
F1309       F  0.69357770  0.02280754  0.85420005    -0.20000
F1310       F  0.60955120  0.54232477  0.63186920    -0.20000
F1311       F  0.59794013  0.50122434  0.66367670    -0.20400
F1312       F  0.63548518  0.50573041  0.61475418    -0.23000
C1313       C  0.72964181  0.36673977  0.02049277    -0.05900
C1314       C  0.70844114  0.35966295  0.98774387     0.00100
C1315       C  0.69532568  0.38419779  0.46444466    -0.08500
C1316       C  0.70540818  0.41112293  0.46722846    -0.05900
C1317       C  0.72814036  0.41429921  0.99291235     0.00100
C1318       C  0.73950156  0.39366410  0.02417011    -0.08400
C1319       C  0.76130185  0.40007096  0.06272025     0.62000
H1320       H  0.73840189  0.35085009  0.04375409     0.12700
H1321       H  0.69554787  0.42725889  0.44622671     0.12700
C1322       C  0.67087059  0.37843977  0.43149301     0.62200
F1323       F  0.76625778  0.37821867  0.09468255    -0.23000
F1324       F  0.75772804  0.42464454  0.59156634    -0.20300
F1325       F  0.78541204  0.40642016  0.03748538    -0.20000
F1326       F  0.64892488  0.37095707  0.46216291    -0.20000
F1327       F  0.68190564  0.35263996  0.88863771    -0.20400
F1328       F  0.66317989  0.40105521  0.40360383    -0.23000
C1329       C  0.62083038  0.29812763  0.03096471    -0.05900
C1330       C  0.63639262  0.28876719  0.98884019     0.00100
C1331       C  0.62785695  0.26968034  0.45791577    -0.08500
C1332       C  0.60058581  0.26149197  0.46555489    -0.05900
C1333       C  0.58354668  0.27341602  0.50311482     0.00100
C1334       C  0.59362587  0.28982877  0.03937402    -0.08400
C1335       C  0.57829018  0.29887118  0.08741105     0.62000
H1336       H  0.63048095  0.31142593  0.05815135     0.12700
H1337       H  0.59214537  0.24580342  0.44153610     0.12700
C1338       C  0.64440641  0.25745057  0.41378350     0.62200
F1339       F  0.59447704  0.31414805  0.11920293    -0.23000
F1340       F  0.56539139  0.28762747  0.60770342    -0.20300
F1341       F  0.55609782  0.31463071  0.07457176    -0.20000
F1342       F  0.66471337  0.24081720  0.43211086    -0.20000
F1343       F  0.65129935  0.28329743  0.88024955    -0.20400
F1344       F  0.62846713  0.24187142  0.38204151    -0.23000
C1345       C  0.98364905  0.99755915  0.77975533    -0.05900
C1346       C  0.98708132  0.47477117  0.74783948     0.00100
C1347       C  0.51038224  0.47304570  0.71515028    -0.08500
C1348       C  0.52958494  0.49423810  0.71602716    -0.05900
C1349       C  0.52631311  0.01701334  0.74816122     0.00100
C1350       C  0.00294928  0.01870783  0.78090602    -0.08400
C1351       C  0.99848305  0.04216648  0.81811777     0.62000
H1352       H  0.96570078  0.99852319  0.80428551     0.12700
H1353       H  0.54736227  0.49321256  0.69122429     0.12700
C1354       C  0.51477608  0.44943682  0.67824881     0.62200
F1355       F  0.97709007  0.03723213  0.85203432    -0.23000
F1356       F  0.99244433  0.06564631  0.79145823    -0.20300
F1357       F  0.52159861  0.04608654  0.84663860    -0.20000
F1358       F  0.49158056  0.44532649  0.65016997    -0.20000
F1359       F  0.52082020  0.42603620  0.70510981    -0.20400
F1360       F  0.53609980  0.45425196  0.64412013    -0.23000
C1361       C  0.88251905  0.47436601  0.77264386    -0.05900
C1362       C  0.88987562  0.45011973  0.74722424     0.00100
C1363       C  0.86975952  0.43616643  0.71913211    -0.08500
C1364       C  0.84292420  0.44662468  0.71899142    -0.05900
C1365       C  0.83557169  0.47086371  0.74447984     0.00100
C1366       C  0.85588959  0.48516397  0.77167168    -0.08400
C1367       C  0.84979053  0.01154403  0.80034821     0.62000
H1368       H  0.89806298  0.48499453  0.79348221     0.12700
H1369       H  0.82737525  0.43597451  0.69820187     0.12700
C1370       C  0.87654004  0.41087919  0.68789585     0.62200
F1371       F  0.87160716  0.01998195  0.82900770    -0.23000
F1372       F  0.82782791  0.00799250  0.83352518    -0.20300
F1373       F  0.84408074  0.03204757  0.76591272    -0.20000
F1374       F  0.88194192  0.38936444  0.72023126    -0.20000
F1375       F  0.89897736  0.41568425  0.65645939    -0.20400
F1376       F  0.85524734  0.40336565  0.65706828    -0.23000
C1377       C  0.98925629  0.34109855  0.79267121    -0.05900
C1378       C  0.97700937  0.32230109  0.75998217     0.00100
C1379       C  0.95627409  0.33143311  0.72690231    -0.08500
C1380       C  0.94869070  0.35919914  0.72780636    -0.05900
C1381       C  0.96126625  0.37808539  0.75996860     0.00100
C1382       C  0.98168247  0.36880354  0.79367831    -0.08400
C1383       C  0.49511861  0.38768062  0.83172228     0.62000
H1384       H  0.50496321  0.33378741  0.81785958     0.12700
H1385       H  0.93321490  0.36655942  0.70229699     0.12700
C1386       C  0.94295389  0.31232081  0.68924779     0.62200
F1387       F  0.50979306  0.37337358  0.86760169    -0.23000
F1388       F  0.47559653  0.40292397  0.85779458    -0.20300
F1389       F  0.51292350  0.40487500  0.80618733    -0.20000
F1390       F  0.92741343  0.29331430  0.71543746    -0.20000
F1391       F  0.96271552  0.29911632  0.66003257    -0.20400
F1392       F  0.92605258  0.32610384  0.65625113    -0.23000
C1393       C  0.75516635  0.22178350  0.51154365    -0.05900
C1394       C  0.77603092  0.22228680  0.98740340     0.00100
C1395       C  0.77880687  0.24610738  0.95699292    -0.08500
C1396       C  0.75745105  0.26546842  0.95745017    -0.05900
C1397       C  0.73303636  0.26137450  0.98532978     0.00100
C1398       C  0.73407971  0.24121222  0.51530890    -0.08400
C1399       C  0.71026137  0.23571166  0.55177755     0.62000
H1400       H  0.75335021  0.20283808  0.53244530     0.12700
H1401       H  0.75958903  0.28398880  0.93534946     0.12700
C1402       C  0.80358394  0.25069094  0.92245652     0.62200
F1403       F  0.71541943  0.21393197  0.58380896    -0.23000
F1404       F  0.68294186  0.22518694  0.01032152    -0.20300
F1405       F  0.70527053  0.25826369  0.58231749    -0.20000
F1406       F  0.80882243  0.22762443  0.89340945    -0.20000
F1407       F  0.82907614  0.26182373  0.45632940    -0.20400
F1408       F  0.79968678  0.27217375  0.88909566    -0.23000
C1409       C  0.87998545  0.22007887  0.53206246    -0.05900
C1410       C  0.87493944  0.19794549  0.49947512     0.00100
C1411       C  0.89398615  0.18616997  0.97518579    -0.08500
C1412       C  0.92045704  0.19675254  0.97969603    -0.05900
C1413       C  0.92858495  0.21799653  0.51240988     0.00100
C1414       C  0.90639306  0.23025599  0.53943527    -0.08400
C1415       C  0.91037761  0.25354548  0.57684241     0.62000
H1416       H  0.86283045  0.22958816  0.55170796     0.12700
H1417       H  0.93684108  0.18888276  0.95558804     0.12700
C1418       C  0.88873714  0.16433920  0.93547007     0.62200
F1419       F  0.88691380  0.25903262  0.60523637    -0.23000
F1420       F  0.91704569  0.27435110  0.06302049    -0.20300
F1421       F  0.93066735  0.24694219  0.61067440    -0.20000
F1422       F  0.86758497  0.17227502  0.90461146    -0.20000
F1423       F  0.88480487  0.13864234  0.46482964    -0.20400
F1424       F  0.91135691  0.15960920  0.90429362    -0.23000
C1425       C  0.78122187  0.11779125  0.96232518    -0.05900
C1426       C  0.80154034  0.12513374  0.99683510     0.00100
C1427       C  0.81075519  0.10925029  0.52525249    -0.08500
C1428       C  0.80048245  0.08246171  0.52397600    -0.05900
C1429       C  0.78089879  0.07101634  0.99341261     0.00100
C1430       C  0.77072429  0.09115275  0.95984760    -0.08400
C1431       C  0.74940841  0.08450749  0.92047901     0.62000
H1432       H  0.77348506  0.13331150  0.93697764     0.12700
H1433       H  0.80732513  0.06754754  0.55145328     0.12700
C1434       C  0.82988893  0.11723427  0.56760156     0.62200
F1435       F  0.74526839  0.10593331  0.88710621    -0.23000
F1436       F  0.72484909  0.07889903  0.94479126    -0.20300
F1437       F  0.75933945  0.06307488  0.38644797    -0.20000
F1438       F  0.82445136  0.13362207  0.09904537    -0.20000
F1439       F  0.85570869  0.12147728  0.54754865    -0.20400
F1440       F  0.83165097  0.09717533  0.60457066    -0.23000
C1441       C  0.84373494  0.68851947  0.00197912     0.80100
N1442       N  0.83645731  0.66176595  0.00247414    -0.78200
C1443       C  0.81109179  0.65730936  0.48709096     0.82600
N1444       N  0.79241947  0.67766677  0.48236372    -0.78100
C1445       C  0.80012466  0.70427774  0.48245105     0.82700
N1446       N  0.82415484  0.70795286  0.99707304    -0.79800
C1447       C  0.91544620  0.94078775  0.24207992     0.80100
N1448       N  0.92343545  0.91426205  0.24568014    -0.78200
C1449       C  0.95034565  0.90762349  0.24778115     0.82600
N1450       N  0.96919720  0.92770439  0.24538857    -0.78100
C1451       C  0.96162539  0.95418317  0.24176841     0.82700
N1452       N  0.93472699  0.96065087  0.24102065    -0.79800
C1453       C  0.70110724  0.83358056  0.48877335     0.80100
N1454       N  0.67451945  0.82568325  0.48948684    -0.78200
C1455       C  0.66776875  0.79880793  0.48738197     0.82600
N1456       N  0.68791453  0.77982657  0.48629181    -0.78100
C1457       C  0.71452505  0.78710059  0.48686986     0.82700
N1458       N  0.72096805  0.81405787  0.48772130    -0.79800
O1459       O  0.76117639  0.51716633  0.31580684    -0.74500
O1460       O  0.76071253  0.51589821  0.16916136    -0.74500
O1461       O  0.72429921  0.52997217  0.24425638    -0.74600
O1462       O  0.79770238  0.50358838  0.24136691    -0.74600
O1463       O  0.78305685  0.96080732  0.24335455    -0.74600
O1464       O  0.70902288  0.98746043  0.24603157    -0.74600
O1465       O  0.74569687  0.97308583  0.17137919    -0.74500
O1466       O  0.74602849  0.97439207  0.31752121    -0.74600
Ni1467     Ni  0.76149923  0.51816087  0.24246937     1.25400
Ni1468     Ni  0.74539732  0.97240049  0.24454871     1.25400
C1469       C  0.75365993  0.99591787  0.34055187     0.87700
C1470       C  0.75322748  0.99418294  0.14636911     0.87600
C1471       C  0.70439066  0.51330298  0.24602361     0.87600
C1472       C  0.80267972  0.97802091  0.24299416     0.87800
O1473       O  0.72041935  0.96286230  0.99290769    -0.74500
O1474       O  0.74560575  0.54069591  0.49248676    -0.74500
O1475       O  0.73242613  0.50316163  0.42136438    -0.74600
O1476       O  0.73202056  0.50022704  0.06661031    -0.74600
O1477       O  0.77517321  0.98569724  0.06671863    -0.74600
O1478       O  0.77567119  0.98887324  0.41880762    -0.74600
O1479       O  0.78841237  0.52273260  0.99386696    -0.74500
O1480       O  0.76370637  0.95192827  0.49326372    -0.74600
Ni1481     Ni  0.73165518  0.50409116  0.49465213     1.25400
Ni1482     Ni  0.77780388  0.98856643  0.49181316     1.25400
C1483       C  0.73813089  0.94677042  0.49536601     0.87700
C1484       C  0.77118279  0.54572320  0.49041688     0.87600
C1485       C  0.75394588  0.99605660  0.39622016     0.87600
C1486       C  0.75347956  0.99332037  0.09059542     0.87800
C1487       C  0.55788660  0.58423443  0.25568723     0.80100
N1488       N  0.58428375  0.57567982  0.25617777    -0.78200
C1489       C  0.59057341  0.54859902  0.25431015     0.82600
N1490       N  0.57005452  0.53025884  0.25120183    -0.78100
C1491       C  0.54362123  0.53839726  0.25190168     0.82700
N1492       N  0.53767958  0.56540033  0.25409361    -0.79800
O1493       O  0.53810253  0.71647607  0.26194073    -0.74500
O1494       O  0.51148456  0.79038371  0.26019108    -0.74500
O1495       O  0.52510393  0.75417861  0.33420024    -0.74600
O1496       O  0.52513793  0.75285936  0.18809828    -0.74600
O1497       O  0.98254165  0.73715109  0.18975683    -0.74600
O1498       O  0.98217401  0.73939772  0.33648495    -0.74600
O1499       O  0.96890240  0.77498886  0.26101874    -0.74500
O1500       O  0.99535498  0.70151722  0.26494934    -0.74600
Ni1501     Ni  0.52647831  0.75403296  0.26108031     1.25400
Ni1502     Ni  0.98071780  0.73773347  0.26317089     1.25400
C1503       C  0.52099276  0.69680603  0.26428009     0.86500
C1504       C  0.98575799  0.79477152  0.25916441     0.87600
C1505       C  0.50378621  0.74686365  0.35926215     0.87600
C1506       C  0.50390565  0.74488043  0.16506254     0.87800
O1507       O  0.51266313  0.72500340  0.43758812    -0.74500
O1508       O  0.51169338  0.72352737  0.08498642    -0.74500
O1509       O  0.97689594  0.71126650  0.51297121    -0.74600
O1510       O  0.54846059  0.73658426  0.00950223    -0.74600
O1511       O  0.53513379  0.78035105  0.51055519    -0.74600
O1512       O  0.95953139  0.75366893  0.01458715    -0.74600
O1513       O  0.99667435  0.76642888  0.08580915    -0.74500
O1514       O  0.99726725  0.76779811  0.43997131    -0.74600
Ni1515     Ni  0.51206501  0.72213986  0.01168154     1.25400
Ni1516     Ni  0.99591702  0.76805781  0.01269340     1.25400
C1517       C  0.50447101  0.74653642  0.41495559     0.87700
C1518       C  0.50404097  0.74492102  0.10932010     0.87600
C1519       C  0.95484975  0.72801439  0.01457795     0.87600
C1520       C  0.55308393  0.76227392  0.00900698     0.87800
C1521       C  0.52946314  0.62102459  0.29356682    -0.05900
C1522       C  0.55057933  0.61369268  0.25926705     0.00100
C1523       C  0.56262461  0.63412954  0.22789535    -0.08500
C1524       C  0.55266216  0.66106434  0.23161569    -0.05900
C1525       C  0.53097747  0.66815032  0.26483547     0.00100
C1526       C  0.51939832  0.64785786  0.29711419    -0.08400
C1527       C  0.49692625  0.65437584  0.33604108     0.62000
H1528       H  0.52072500  0.60533382  0.31771903     0.12700
H1529       H  0.06144131  0.67677011  0.20770523     0.12700
C1530       C  0.58537669  0.62764926  0.18971516     0.62200
F1531       F  0.49189596  0.63273477  0.36875071    -0.23000
F1532       F  0.47303305  0.66025680  0.31123622    -0.20300
F1533       F  0.50430808  0.67644488  0.36548830    -0.20000
F1534       F  0.07797247  0.60618173  0.15880788    -0.20000
F1535       F  0.60862059  0.62077813  0.21564396    -0.20400
F1536       F  0.09154975  0.64959995  0.15878649    -0.23000
C1537       C  0.63947628  0.55661987  0.23305304    -0.05900
C1538       C  0.61965742  0.53929089  0.25449082     0.00100
C1539       C  0.62824278  0.51414591  0.27605954    -0.08500
C1540       C  0.65591842  0.50664166  0.27175516    -0.05900
C1541       C  0.67567090  0.52370604  0.24922824     0.00100
C1542       C  0.66737509  0.54974709  0.23106447    -0.08400
C1543       C  0.68746020  0.57044923  0.20944364     0.62000
H1544       H  0.63286498  0.57580406  0.21738035     0.12700
H1545       H  0.66232839  0.98682085  0.28550377     0.12700
C1546       C  0.60867636  0.99485622  0.30341289     0.62200
F1547       F  0.67456329  0.59352104  0.19128269    -0.23000
F1548       F  0.70229329  0.55911953  0.16923279    -0.20300
F1549       F  0.70483934  0.57869868  0.24739607    -0.20000
F1550       F  0.59180511  0.98229198  0.26899071    -0.20000
F1551       F  0.59323234  0.00934555  0.33898840    -0.20400
F1552       F  0.62235728  0.97465566  0.32957027    -0.23000
C1553       C  0.73140780  0.87003320  0.52113330    -0.05900
C1554       C  0.70886207  0.86312035  0.49150277     0.00100
C1555       C  0.69667775  0.88042961  0.95726542    -0.08500
C1556       C  0.70671609  0.90734742  0.96064429    -0.05900
C1557       C  0.72842017  0.91783275  0.49589522     0.00100
C1558       C  0.74122367  0.89695728  0.52444595    -0.08400
C1559       C  0.76463214  0.90303928  0.55973618     0.62000
H1560       H  0.74139711  0.85397123  0.54211576     0.12700
H1561       H  0.69802262  0.92326362  0.93735860     0.12700
C1562       C  0.67420734  0.87420169  0.91996482     0.62200
F1563       F  0.77081621  0.88096920  0.59036195    -0.23000
F1564       F  0.75313813  0.92183530  0.09299736    -0.20300
F1565       F  0.78768162  0.90944804  0.53119230    -0.20000
F1566       F  0.65056721  0.86762369  0.94658370    -0.20000
F1567       F  0.67700604  0.85775785  0.39722508    -0.20400
F1568       F  0.66857160  0.89625680  0.88892141    -0.23000
C1569       C  0.62156503  0.80217034  0.52756060    -0.05900
C1570       C  0.63869485  0.79007165  0.49027348     0.00100
C1571       C  0.62425005  0.77112154  0.95298256    -0.08500
C1572       C  0.59703309  0.76299883  0.96126131    -0.05900
C1573       C  0.58159098  0.77206676  0.00368988     0.00100
C1574       C  0.59414412  0.79424552  0.53460760    -0.08400
C1575       C  0.57690179  0.80747012  0.57662109     0.62000
H1576       H  0.63002240  0.81773290  0.55182133     0.12700
H1577       H  0.58748143  0.74942392  0.93440573     0.12700
C1578       C  0.63961946  0.76137315  0.90539444     0.62200
F1579       F  0.59212276  0.82443179  0.60709994    -0.23000
F1580       F  0.56943844  0.77634284  0.11441218    -0.20300
F1581       F  0.55651636  0.82293693  0.55521513    -0.20000
F1582       F  0.65973074  0.74313138  0.91871312    -0.20000
F1583       F  0.65593912  0.77805295  0.38454473    -0.20400
F1584       F  0.62262492  0.74843356  0.87154286    -0.23000
C1585       C  0.98052622  0.49549906  0.28135707    -0.05900
C1586       C  0.98248541  0.97590000  0.24262605     0.00100
C1587       C  0.50408959  0.97720312  0.20571629    -0.08500
C1588       C  0.52344947  0.99812954  0.21001014    -0.05900
C1589       C  0.52168359  0.51774475  0.24928855     0.00100
C1590       C  0.00006963  0.51622485  0.28612172    -0.08400
C1591       C  0.99810723  0.53570753  0.33113526     0.62000
H1592       H  0.96381910  0.49406420  0.30879492     0.12700
H1593       H  0.54027994  0.99934299  0.18280733     0.12700
C1594       C  0.50651396  0.95699248  0.16186637     0.62200
F1595       F  0.97796289  0.52813718  0.36597602    -0.23000
F1596       F  0.99202094  0.56156112  0.31395360    -0.20300
F1597       F  0.52238346  0.53642787  0.35608115    -0.20000
F1598       F  0.48238872  0.95633549  0.13551968    -0.20000
F1599       F  0.51215448  0.93131393  0.18055878    -0.20400
F1600       F  0.52715370  0.96390803  0.12756551    -0.23000
C1601       C  0.87835904  0.97135287  0.27248969    -0.05900
C1602       C  0.88603285  0.94863923  0.24282525     0.00100
C1603       C  0.86592963  0.93519180  0.21383027    -0.08500
C1604       C  0.83894635  0.94527898  0.21540992    -0.05900
C1605       C  0.83146608  0.96831933  0.24439959     0.00100
C1606       C  0.85147158  0.98137051  0.27424663    -0.08400
C1607       C  0.84451216  0.50531601  0.30910895     0.62000
H1608       H  0.89381838  0.98133542  0.29463245     0.12700
H1609       H  0.82342803  0.93540882  0.19324142     0.12700
C1610       C  0.87287020  0.91085003  0.18013457     0.62200
F1611       F  0.86581039  0.51170082  0.34080508    -0.23000
F1612       F  0.82219943  0.49911832  0.33991174    -0.20300
F1613       F  0.83888354  0.52811169  0.28013627    -0.20000
F1614       F  0.87946934  0.88878061  0.21028810    -0.20000
F1615       F  0.89462003  0.91700839  0.14787360    -0.20400
F1616       F  0.85123877  0.90339835  0.15007856    -0.23000
C1617       C  0.98703130  0.84262820  0.28877446    -0.05900
C1618       C  0.97547143  0.82325580  0.25641721     0.00100
C1619       C  0.95523565  0.83164151  0.22160279    -0.08500
C1620       C  0.94732382  0.85928078  0.22069208    -0.05900
C1621       C  0.95917177  0.87872467  0.25261302     0.00100
C1622       C  0.97915384  0.87023264  0.28787487    -0.08400
C1623       C  0.49166129  0.89002689  0.32537138     0.62000
H1624       H  0.50236924  0.83598548  0.31509262     0.12700
H1625       H  0.93212500  0.86608950  0.19408103     0.12700
C1626       C  0.94286931  0.81186849  0.18394864     0.62200
F1627       F  0.50626248  0.87656653  0.36246132    -0.23000
F1628       F  0.47150073  0.90512439  0.34999261    -0.20300
F1629       F  0.50930935  0.90731307  0.29962286    -0.20000
F1630       F  0.92715818  0.79291145  0.20989533    -0.20000
F1631       F  0.96333142  0.79866205  0.15657360    -0.20400
F1632       F  0.92639615  0.82497846  0.14928158    -0.23000
C1633       C  0.75146334  0.71792132  0.01434991    -0.05900
C1634       C  0.77902740  0.72629635  0.48246773     0.00100
C1635       C  0.78194527  0.75133833  0.45563120    -0.08500
C1636       C  0.76036269  0.77047166  0.45789543    -0.05900
C1637       C  0.73635972  0.76576707  0.48669121     0.00100
C1638       C  0.72976417  0.73675859  0.01360546    -0.08400
C1639       C  0.70383383  0.73011880  0.04371532     0.62000
H1640       H  0.74944029  0.69939880  0.03646418     0.12700
H1641       H  0.76209525  0.78943081  0.43702616     0.12700
C1642       C  0.80740723  0.75791412  0.42418180     0.62200
F1643       F  0.70675806  0.70710066  0.07368610    -0.23000
F1644       F  0.68729478  0.72962647  0.52441552    -0.20300
F1645       F  0.69684370  0.75150596  0.07585759    -0.20000
F1646       F  0.81335407  0.73683128  0.39063543    -0.20000
F1647       F  0.82596752  0.75654711  0.95162227    -0.20400
F1648       F  0.80429710  0.78143130  0.39567192    -0.23000
C1649       C  0.87868824  0.71776060  0.04166819    -0.05900
C1650       C  0.87270139  0.69691846  0.00677005     0.00100
C1651       C  0.89726079  0.68501153  0.47392608    -0.08500
C1652       C  0.92367306  0.69529617  0.48112624    -0.05900
C1653       C  0.92634292  0.71783236  0.01398677     0.00100
C1654       C  0.90521969  0.72830390  0.04626797    -0.08400
C1655       C  0.91069749  0.74987469  0.08644998     0.62000
H1656       H  0.86224195  0.72583120  0.06538634     0.12700
H1657       H  0.94082976  0.68599733  0.46113614     0.12700
C1658       C  0.89343715  0.66119929  0.43767581     0.62200
F1659       F  0.88831348  0.75419001  0.11844448    -0.23000
F1660       F  0.91738950  0.77695214  0.55056249    -0.20300
F1661       F  0.93215097  0.74174479  0.11640572    -0.20000
F1662       F  0.87439864  0.66782002  0.40142373    -0.20000
F1663       F  0.88211560  0.64013362  0.95959192    -0.20400
F1664       F  0.91740536  0.65422477  0.41210293    -0.23000
C1665       C  0.78236138  0.62022391  0.45273929    -0.05900
C1666       C  0.80190130  0.62834090  0.48818013     0.00100
C1667       C  0.81182540  0.60488453  0.03025308    -0.08500
C1668       C  0.80145694  0.57812311  0.02739598    -0.05900
C1669       C  0.78089906  0.57442138  0.48864198     0.00100
C1670       C  0.77155174  0.59363813  0.45241384    -0.08400
C1671       C  0.75069555  0.58600922  0.41283890     0.62000
H1672       H  0.77549206  0.63506200  0.42515594     0.12700
H1673       H  0.80913419  0.56245695  0.05251097     0.12700
C1674       C  0.83288849  0.61145596  0.07014217     0.62200
F1675       F  0.74684451  0.60662588  0.37760206    -0.23000
F1676       F  0.72592374  0.58084743  0.43674729    -0.20300
F1677       F  0.75762494  0.56219263  0.89184228    -0.20000
F1678       F  0.82061187  0.64075778  0.59135358    -0.20000
F1679       F  0.85754617  0.61722353  0.04641897    -0.20400
F1680       F  0.83695727  0.58988031  0.10322175    -0.23000
C1681       C  0.84592825  0.69030745  0.49161239     0.80100
N1682       N  0.83784866  0.66382515  0.49155594    -0.78200
C1683       C  0.80991595  0.65440286  0.99793463     0.82600
N1684       N  0.79074581  0.67419862  0.99218775    -0.78100
C1685       C  0.79765484  0.70099711  0.99146036     0.82700
N1686       N  0.82685011  0.71032070  0.48775131    -0.79800
C1687       C  0.91909865  0.94139073  0.74896004     0.80100
N1688       N  0.92636321  0.91466198  0.75337074    -0.78200
C1689       C  0.95308473  0.90729100  0.75627225     0.82600
N1690       N  0.97246174  0.92686465  0.75382639    -0.78100
C1691       C  0.96565197  0.95351730  0.74935059     0.82700
N1692       N  0.93894395  0.96066678  0.74763339    -0.79800
C1693       C  0.69995762  0.83036374  0.98581643     0.80100
N1694       N  0.67312686  0.82334967  0.98688221    -0.78200
C1695       C  0.66557268  0.79670995  0.98521023     0.82600
N1696       N  0.68505396  0.77707765  0.98410281    -0.78100
C1697       C  0.71188155  0.78344347  0.98464981     0.82700
N1698       N  0.71920711  0.81021541  0.98518237    -0.79800
O1699       O  0.76342535  0.51630994  0.81738668    -0.74500
O1700       O  0.76339939  0.51815628  0.67048850    -0.74500
O1701       O  0.72644048  0.52955931  0.74586935    -0.74600
O1702       O  0.80074110  0.50545660  0.74246379    -0.74600
O1703       O  0.78733012  0.96229511  0.74178888    -0.74600
O1704       O  0.71239752  0.98650440  0.74346270    -0.74600
O1705       O  0.75004677  0.97479031  0.66955612    -0.74500
O1706       O  0.74932091  0.97319876  0.81565917    -0.74600
Ni1707     Ni  0.76401500  0.51889330  0.74403872     1.25400
Ni1708     Ni  0.74929742  0.97264775  0.74252673     1.25400
C1709       C  0.75629106  0.99439886  0.84045122     0.87700
C1710       C  0.75649604  0.99672128  0.64612672     0.87600
C1711       C  0.70717653  0.51212819  0.74530004     0.87600
C1712       C  0.80648346  0.98002895  0.74281406     0.87800
O1713       O  0.72072696  0.96634626  0.49614815    -0.74500
O1714       O  0.74543186  0.53725693  0.99345008    -0.74500
O1715       O  0.73373011  0.50041540  0.92017278    -0.74600
O1716       O  0.73408793  0.50413475  0.56790359    -0.74600
O1717       O  0.77713479  0.98938151  0.56499269    -0.74600
O1718       O  0.77684997  0.98590092  0.92009512    -0.74600
O1719       O  0.78864045  0.52622452  0.49055040    -0.74500
O1720       O  0.76339926  0.94844979  0.99328507    -0.74600
Ni1721     Ni  0.73134635  0.50065807  0.99330568     1.25400
Ni1722     Ni  0.77747403  0.98511474  0.99347588     1.25400
C1723       C  0.73782693  0.94327987  0.99331464     0.87700
C1724       C  0.77102840  0.54228167  0.99337419     0.87600
C1725       C  0.75565411  0.99356701  0.89623386     0.87600
C1726       C  0.75594025  0.99698888  0.59035556     0.87800
C1727       C  0.56183557  0.58407301  0.74775594     0.80100
N1728       N  0.58838010  0.57605023  0.74465007    -0.78200
C1729       C  0.59492076  0.54910702  0.74127541     0.82600
N1730       N  0.57475062  0.53023820  0.74262220    -0.78100
C1731       C  0.54818800  0.53796810  0.74685838     0.82700
N1732       N  0.54198410  0.56489695  0.74904486    -0.79800
O1733       O  0.54010254  0.71561116  0.76179887    -0.74500
O1734       O  0.51299833  0.78926804  0.76201004    -0.74500
O1735       O  0.52586593  0.75253830  0.83527391    -0.74600
O1736       O  0.52746667  0.75248892  0.68877608    -0.74600
O1737       O  0.98500174  0.73642338  0.68875151    -0.74600
O1738       O  0.98298283  0.73762286  0.83535827    -0.74600
O1739       O  0.97046387  0.77377905  0.76067429    -0.74500
O1740       O  0.99746991  0.70024350  0.76326473    -0.74600
Ni1741     Ni  0.52813173  0.75302453  0.76201837     1.25400
Ni1742     Ni  0.98246871  0.73645805  0.76204188     1.25400
C1743       C  0.52320684  0.69576566  0.76271022     0.86500
C1744       C  0.98723168  0.79368274  0.76063487     0.87600
C1745       C  0.50417700  0.74520238  0.85926509     0.87600
C1746       C  0.50650883  0.74444212  0.66486944     0.87800
O1747       O  0.51131217  0.72368138  0.93858451    -0.74500
O1748       O  0.51454733  0.72380142  0.58402099    -0.74500
O1749       O  0.97458075  0.71082713  0.01327438    -0.74600
O1750       O  0.55054678  0.73765774  0.50767101    -0.74600
O1751       O  0.53338564  0.77945795  0.01079277    -0.74600
O1752       O  0.96155359  0.75395988  0.51547687    -0.74600
O1753       O  0.99908194  0.76659165  0.58624098    -0.74500
O1754       O  0.99619986  0.76660204  0.93932589    -0.74600
Ni1755     Ni  0.51426409  0.72291292  0.51061162     1.25400
Ni1756     Ni  0.99774850  0.76868525  0.51322281     1.25400
C1757       C  0.50377667  0.74516535  0.91505972     0.87700
C1758       C  0.50684013  0.74495914  0.60908065     0.87600
C1759       C  0.95702743  0.72829117  0.51449684     0.87600
C1760       C  0.55500746  0.76338659  0.50786849     0.87800
C1761       C  0.53517633  0.62042129  0.79130897    -0.05900
C1762       C  0.55403532  0.61329852  0.75246282     0.00100
C1763       C  0.56299405  0.63353872  0.71739569    -0.08500
C1764       C  0.55301475  0.66038014  0.72321491    -0.05900
C1765       C  0.53363525  0.66729469  0.76129679     0.00100
C1766       C  0.52455076  0.64700456  0.79614602    -0.08400
C1767       C  0.50396546  0.65331373  0.83863585     0.62000
H1768       H  0.52846724  0.60471047  0.81763544     0.12700
H1769       H  0.05964191  0.67613840  0.69685226     0.12700
C1770       C  0.58174393  0.62661014  0.67238423     0.62200
F1771       F  0.50075661  0.63165021  0.87204890    -0.23000
F1772       F  0.47889823  0.65892649  0.81793106    -0.20300
F1773       F  0.51247628  0.67553296  0.86650432    -0.20000
F1774       F  0.07081198  0.60560920  0.64444417    -0.20000
F1775       F  0.60699338  0.61884236  0.68971277    -0.20400
F1776       F  0.08546831  0.64863596  0.63996612    -0.23000
C1777       C  0.64007703  0.54731374  0.78169468    -0.05900
C1778       C  0.62385119  0.54017427  0.74026440     0.00100
C1779       C  0.63531567  0.52432464  0.69986652    -0.08500
C1780       C  0.66241264  0.51505649  0.70359637    -0.05900
C1781       C  0.67853616  0.52191502  0.74533177     0.00100
C1782       C  0.66735030  0.53852953  0.78493896    -0.08400
C1783       C  0.68382085  0.54614897  0.83128840     0.62000
H1784       H  0.63101081  0.55958297  0.81199904     0.12700
H1785       H  0.67146908  0.00276612  0.67336164     0.12700
C1786       C  0.61944067  0.01829535  0.65206710     0.62200
F1787       F  0.66837188  0.56030782  0.86736157    -0.23000
F1788       F  0.70544974  0.56244794  0.81661428    -0.20300
F1789       F  0.69356461  0.52279954  0.85415791    -0.20000
F1790       F  0.60954977  0.04234082  0.63193060    -0.20000
F1791       F  0.59795444  0.00123118  0.66371645    -0.20400
F1792       F  0.63549613  0.00575839  0.61479098    -0.23000
C1793       C  0.72966606  0.86675180  0.02051806    -0.05900
C1794       C  0.70845857  0.85968058  0.98778030     0.00100
C1795       C  0.69535496  0.88421142  0.46445229    -0.08500
C1796       C  0.70544155  0.91113440  0.46724749    -0.05900
C1797       C  0.72816972  0.91431188  0.99294315     0.00100
C1798       C  0.73953259  0.89367363  0.02419137    -0.08400
C1799       C  0.76134250  0.90007426  0.06272614     0.62000
H1800       H  0.73842663  0.85085962  0.04377274     0.12700
H1801       H  0.69557943  0.92727518  0.44626168     0.12700
C1802       C  0.67089371  0.87846366  0.43151016     0.62200
F1803       F  0.76630187  0.87821905  0.09467953    -0.23000
F1804       F  0.75779033  0.92462607  0.59155764    -0.20300
F1805       F  0.78544856  0.90642095  0.03747461    -0.20000
F1806       F  0.64895055  0.87098193  0.46218745    -0.20000
F1807       F  0.68190798  0.85266588  0.88868692    -0.20400
F1808       F  0.66320404  0.90108468  0.40363571    -0.23000
C1809       C  0.62082927  0.79817269  0.03096802    -0.05900
C1810       C  0.63639735  0.78879803  0.98886210     0.00100
C1811       C  0.62786711  0.76970657  0.45786287    -0.08500
C1812       C  0.60059546  0.76151938  0.46550227    -0.05900
C1813       C  0.58355853  0.77344024  0.50306958     0.00100
C1814       C  0.59362315  0.78987780  0.03937198    -0.08400
C1815       C  0.57827887  0.79894137  0.08738568     0.62000
H1816       H  0.63047616  0.81147974  0.05814449     0.12700
H1817       H  0.59215352  0.74583317  0.44148019     0.12700
C1818       C  0.64441497  0.75747844  0.41372678     0.62200
F1819       F  0.59446100  0.81422964  0.11916719    -0.23000
F1820       F  0.56541195  0.78764280  0.60766856    -0.20300
F1821       F  0.55609143  0.81469831  0.07450760    -0.20000
F1822       F  0.66471561  0.74083566  0.43204931    -0.20000
F1823       F  0.65131792  0.78330376  0.88028531    -0.20400
F1824       F  0.62847221  0.74190953  0.38197363    -0.23000
C1825       C  0.98364890  0.49755490  0.77977748    -0.05900
C1826       C  0.98708752  0.97476676  0.74784041     0.00100
C1827       C  0.51037775  0.97305460  0.71513824    -0.08500
C1828       C  0.52958486  0.99424267  0.71603531    -0.05900
C1829       C  0.52631009  0.51701615  0.74813426     0.00100
C1830       C  0.00295321  0.51869931  0.78094396    -0.08400
C1831       C  0.99849437  0.54214834  0.81817982     0.62000
H1832       H  0.96570270  0.49851508  0.80431384     0.12700
H1833       H  0.54736283  0.99321999  0.69123303     0.12700
C1834       C  0.51476736  0.94945427  0.67821572     0.62200
F1835       F  0.97710686  0.53720601  0.85210433    -0.23000
F1836       F  0.99245212  0.56563532  0.79154537    -0.20300
F1837       F  0.52159058  0.54610797  0.84659538    -0.20000
F1838       F  0.49156952  0.94535244  0.65013913    -0.20000
F1839       F  0.52081187  0.92604660  0.70505487    -0.20400
F1840       F  0.53608896  0.95427630  0.64408600    -0.23000
C1841       C  0.88252985  0.97437631  0.77264098    -0.05900
C1842       C  0.88988130  0.95012426  0.74723614     0.00100
C1843       C  0.86976138  0.93616784  0.71915908    -0.08500
C1844       C  0.84292806  0.94663097  0.71901416    -0.05900
C1845       C  0.83558045  0.97087556  0.74448899     0.00100
C1846       C  0.85590174  0.98517721  0.77166934    -0.08400
C1847       C  0.84977339  0.51152684  0.80035999     0.62000
H1848       H  0.89807651  0.98500643  0.79346939     0.12700
H1849       H  0.82737638  0.93597908  0.69823485     0.12700
C1850       C  0.87653503  0.91087036  0.68794701     0.62200
F1851       F  0.87158719  0.51996408  0.82902763    -0.23000
F1852       F  0.82780903  0.50796912  0.83353038    -0.20300
F1853       F  0.84406338  0.53203366  0.76593146    -0.20000
F1854       F  0.88193441  0.88936395  0.72030350    -0.20000
F1855       F  0.89897153  0.91566190  0.65650082    -0.20400
F1856       F  0.85523893  0.90335182  0.65713197    -0.23000
C1857       C  0.98923590  0.84108753  0.79271721    -0.05900
C1858       C  0.97698394  0.82229145  0.76003134     0.00100
C1859       C  0.95625164  0.83142771  0.72694929    -0.08500
C1860       C  0.94867799  0.85919637  0.72784465    -0.05900
C1861       C  0.96125948  0.87808126  0.76000150     0.00100
C1862       C  0.98167109  0.86879520  0.79371653    -0.08400
C1863       C  0.49513452  0.88769494  0.83167070     0.62000
H1864       H  0.50498946  0.83380427  0.81781075     0.12700
H1865       H  0.93320464  0.86655962  0.70233277     0.12700
C1866       C  0.94292370  0.81231664  0.68930277     0.62200
F1867       F  0.50981398  0.87339191  0.86754830    -0.23000
F1868       F  0.47561246  0.90293680  0.85774615    -0.20300
F1869       F  0.51293518  0.90489046  0.80612784    -0.20000
F1870       F  0.92737810  0.79331769  0.71550148    -0.20000
F1871       F  0.96267968  0.79910302  0.66008877    -0.20400
F1872       F  0.92602550  0.82610233  0.65630427    -0.23000
C1873       C  0.75515824  0.72177475  0.51147238    -0.05900
C1874       C  0.77601779  0.72228854  0.98741903     0.00100
C1875       C  0.77879945  0.74611002  0.95701298    -0.08500
C1876       C  0.75744877  0.76547661  0.95747589    -0.05900
C1877       C  0.73303470  0.76138821  0.98536014     0.00100
C1878       C  0.73407743  0.74120920  0.51524334    -0.08400
C1879       C  0.71025786  0.73571237  0.55171136     0.62000
H1880       H  0.75333672  0.70282824  0.53236882     0.12700
H1881       H  0.75959032  0.78399707  0.93537657     0.12700
C1882       C  0.80357735  0.75068929  0.92247675     0.62200
F1883       F  0.71540935  0.71392747  0.58373425    -0.23000
F1884       F  0.68293209  0.72521219  0.01037425    -0.20300
F1885       F  0.70527500  0.75826267  0.58226003    -0.20000
F1886       F  0.80880884  0.72762376  0.89342287    -0.20000
F1887       F  0.82907965  0.76180276  0.45627252    -0.20400
F1888       F  0.79968604  0.77217617  0.88912251    -0.23000
C1889       C  0.87996586  0.72006036  0.53204807    -0.05900
C1890       C  0.87492506  0.69792748  0.49945667     0.00100
C1891       C  0.89396705  0.68614070  0.97523181    -0.08500
C1892       C  0.92043853  0.69672170  0.97974812    -0.05900
C1893       C  0.92856668  0.71798314  0.51240992     0.00100
C1894       C  0.90637145  0.73024033  0.53942895    -0.08400
C1895       C  0.91035002  0.75353097  0.57683601     0.62000
H1896       H  0.86280812  0.72956768  0.55168856     0.12700
H1897       H  0.93682397  0.68884868  0.95564716     0.12700
C1898       C  0.88872044  0.66430616  0.93552224     0.62200
F1899       F  0.88688284  0.75901672  0.60522103    -0.23000
F1900       F  0.91702369  0.77432694  0.06305407    -0.20300
F1901       F  0.93063674  0.74693034  0.61067605    -0.20000
F1902       F  0.86757403  0.67224149  0.90464944    -0.20000
F1903       F  0.88479530  0.63862741  0.46480454    -0.20400
F1904       F  0.91134383  0.65956904  0.90435907    -0.23000
C1905       C  0.78117802  0.61778983  0.96232154    -0.05900
C1906       C  0.80149808  0.62512769  0.99683258     0.00100
C1907       C  0.81073442  0.60923703  0.52522154    -0.08500
C1908       C  0.80045642  0.58245048  0.52395194    -0.05900
C1909       C  0.78084744  0.57101324  0.99340245     0.00100
C1910       C  0.77067388  0.59115339  0.95984383    -0.08400
C1911       C  0.74935034  0.58451488  0.92048569     0.62000
H1912       H  0.77344470  0.63331222  0.93697471     0.12700
H1913       H  0.80729665  0.56753650  0.55143174     0.12700
C1914       C  0.82987126  0.61721919  0.56756667     0.62200
F1915       F  0.74520644  0.60594499  0.88712436    -0.23000
F1916       F  0.72479454  0.57890682  0.94481152    -0.20300
F1917       F  0.75931550  0.56306217  0.38642556    -0.20000
F1918       F  0.82438884  0.63361606  0.09905391    -0.20000
F1919       F  0.85569129  0.62145540  0.54750953    -0.20400
F1920       F  0.83163029  0.59716188  0.60453951    -0.23000
loop_ 
_geom_bond_atom_site_label_1 
_geom_bond_atom_site_label_2 
_geom_bond_distance 
_geom_bond_site_symmetry_2 
_ccdc_geom_bond_type 
C1            N2   1.363       .  A
C1            N6   1.361   1_554  A
C1          C210   1.492       .  S
N2          C243   1.363   1_554  A
C3            N4   1.362       .  A
C3          N242   1.362       .  A
C3          C226   1.495       .  S
N4            C5   1.362       .  A
C5          N246   1.358       .  A
C5          C194   1.495       .  S
N6          C245   1.359       .  A
C7            N8   1.363       .  A
C7           N12   1.363       .  A
C7          C162   1.494       .  S
N8            C9   1.363       .  A
C9           N10   1.357       .  A
C9          C181   1.489       .  S
N10          C11   1.355       .  A
C11          N12   1.359       .  A
C11         C146   1.483       .  S
C13          N14   1.365       .  A
C13          N18   1.365       .  A
C13         C114   1.504       .  S
N14          C15   1.364       .  A
C15          N16   1.357       .  A
C15         C130   1.494       .  S
N16          C17   1.358       .  A
C17          N18   1.363       .  A
C17         C197   1.497       .  S
O19         Ni27   1.919       .  S
O19         C509   1.280   1_545  A
O20         Ni27   1.922       .  S
O20         C510   1.281   1_545  A
O21         Ni27   1.916       .  S
O21          C31   1.279       .  A
O22         Ni27   1.915       .  S
O22         C512   1.279   1_545  A
O23         Ni28   1.934       .  S
O23          C32   1.285       .  A
O24         Ni28   1.932       .  S
O24         C511   1.286       .  A
O25         Ni28   1.914       .  S
O25          C30   1.278       .  A
O26         Ni28   1.912       .  S
O26          C29   1.278       .  A
Ni27       Ni508   2.387   1_545  S
Ni28       Ni507   2.387       .  S
C29          C45   1.456       .  S
C29         O499   1.280       .  A
C30          C46   1.459       .  S
C30         O500   1.281       .  A
C31         C101   1.499       .  S
C31         O504   1.286   1_545  A
C32         C165   1.492       .  S
C32         O502   1.279       .  A
O33        Ni761   1.936       .  S
O33         C283   1.285       .  A
O34         Ni41   1.928       .  S
O34          C44   1.282       .  A
O35         Ni41   1.917       .  S
O35         C525   1.280   1_545  A
O36        Ni281   1.918   1_554  S
O36         C526   1.280   1_545  A
O37        Ni282   1.917   1_554  S
O37          C46   1.280       .  A
O38         Ni42   1.914       .  S
O38          C45   1.279       .  A
O39        Ni762   1.927   1_545  S
O39         C284   1.283       .  A
O40         Ni42   1.931       .  S
O40          C43   1.283       .  A
Ni41        O753   1.933   1_545  S
Ni41        O276   1.922       .  S
Ni41       Ni522   2.388   1_545  S
Ni42        O277   1.914       .  S
Ni42        O759   1.928       .  S
Ni42       Ni521   2.388       .  S
C43         C117   1.501       .  S
C43         O273   1.284       .  A
C44         C229   1.491       .  S
C44         O279   1.283       .  A
C45         O515   1.280       .  A
C46         O516   1.280       .  A
C47          N48   1.362       .  A
C47          N52   1.361       .  A
C47          C82   1.492       .  S
N48          C49   1.365       .  A
C49          N50   1.359       .  A
C49          C98   1.497       .  S
N50          C51   1.358       .  A
C51          N52   1.358       .  A
C51         C149   1.486       .  S
O53         Ni61   1.929       .  S
O53          C63   1.284       .  A
O54         Ni61   1.929       .  S
O54        C1024   1.284   1_455  A
O55         Ni61   1.912       .  S
O55          C65   1.278       .  A
O56         Ni61   1.912       .  S
O56          C66   1.278       .  A
O57         Ni62   1.920       .  S
O57        C1026   1.281       .  A
O58         Ni62   1.922       .  S
O58        C1025   1.281       .  A
O59         Ni62   1.919       .  S
O59          C64   1.280       .  A
O60         Ni62   1.917       .  S
O60        C1023   1.280       .  A
Ni61      Ni1022   2.389   1_455  S
Ni62      Ni1021   2.389       .  S
C63          C85   1.489       .  S
C63        O1020   1.280   1_455  A
C64         C178   1.488       .  S
C64        O1014   1.284       .  A
C65          C77   1.458       .  S
C65        O1018   1.281   1_455  A
C66          C78   1.458       .  S
C66        O1017   1.281   1_455  A
O67        Ni315   1.916       .  S
O67          C77   1.280       .  A
O68         Ni75   1.918       .  S
O68          C78   1.280       .  A
O69       Ni1275   1.924       .  S
O69         C319   1.283       .  A
O70         Ni75   1.927       .  S
O70          C80   1.283       .  A
O71       Ni1276   1.927   1_455  S
O71         C320   1.282       .  A
O72         Ni76   1.926       .  S
O72          C79   1.282       .  A
O73         Ni76   1.915       .  S
O73        C1038   1.279       .  A
O74        Ni316   1.917       .  S
O74        C1037   1.279       .  A
Ni75        O307   1.914   1_554  S
Ni75       O1269   1.925   1_455  S
Ni75      Ni1036   2.390   1_455  S
Ni76       O1271   1.927       .  S
Ni76        O314   1.920   1_554  S
Ni76      Ni1035   2.390       .  S
C77        O1034   1.279   1_455  A
C78        O1033   1.279   1_455  A
C79         C213   1.490       .  S
C79         O309   1.283       .  A
C80         C133   1.487       .  S
C80         O311   1.282       .  A
C81          C82   1.404       .  A
C81          C86   1.408       .  A
C81          H88   1.082       .  S
C82          C83   1.421       .  A
C83          C84   1.411       .  A
C83          C90   1.517       .  S
C84          C85   1.404       .  A
C84        H1049   1.083       .  S
C85          C86   1.420       .  A
C86          C87   1.520   1_455  S
C87          F91   1.385       .  S
C87          F92   1.382       .  S
C87          F93   1.383   1_655  S
H89        C1044   1.083       .  S
C90          F95   1.381       .  S
C90        F1054   1.383       .  S
C90        F1056   1.385       .  S
F94        C1050   1.383       .  S
F96        C1050   1.385       .  S
C97          C98   1.405       .  A
C97         C102   1.411       .  A
C97         H104   1.080       .  S
C98          C99   1.423       .  A
C99         C100   1.410       .  A
C99         C586   1.521   1_545  S
C100        C101   1.406       .  A
C100        H585   1.083   1_545  S
C101        C102   1.425       .  A
C102        C103   1.521       .  S
C103        F107   1.385       .  S
C103        F108   1.383       .  S
C103        F109   1.384       .  S
H105        C580   1.083       .  S
C106        C579   1.521       .  S
C106        F110   1.382       .  S
C106        F111   1.384       .  S
C106        F112   1.385       .  S
C113        C114   1.407       .  A
C113        C118   1.413       .  A
C113        H120   1.083       .  S
C114        C355   1.424       .  A
C115        C116   1.416       .  A
C115        C354   1.423       .  A
C115        C122   1.520       .  S
C116        C357   1.407       .  A
C116        H121   1.083       .  S
C117        C118   1.421       .  A
C117        C356   1.407       .  A
C118        C119   1.519       .  S
C119        F123   1.385       .  S
C119        F125   1.382       .  S
C119        F364   1.384       .  S
C122        F126   1.382       .  S
C122        F128   1.385       .  S
C122        F367   1.384       .  S
F124        C359   1.384       .  S
F127        C362   1.384       .  S
C129        C130   1.406       .  A
C129        C134   1.413       .  A
C129        H136   1.083       .  S
C130        C371   1.422       .  A
C131        C132   1.410       .  A
C131        C370   1.420       .  A
C131        C138   1.519       .  S
C132        C133   1.403   1_556  A
C132        H137   1.083       .  S
C133        C374   1.418       .  A
C134        C373   1.420       .  A
C134        C135   1.518       .  S
C135        F139   1.384       .  S
C135        F141   1.382       .  S
C135        F380   1.384       .  S
C138        F142   1.381       .  S
C138        F144   1.385       .  S
C138        F383   1.383       .  S
F140        C375   1.383       .  S
F143        C378   1.383       .  S
C145        C150   1.410   1_565  A
C145        C626   1.403       .  A
C145        H152   1.082       .  S
C146        C625   1.403       .  A
C146       C1107   1.418       .  A
C147        C148   1.409       .  A
C147       C1106   1.418   1_455  A
C147        C154   1.519       .  S
C148        C629   1.404       .  A
C148        H153   1.082       .  S
C149        C628   1.404   1_545  A
C149       C1110   1.419       .  A
C150       C1109   1.419       .  A
C150        C151   1.518       .  S
C151        F155   1.385       .  S
C151        F156   1.381       .  S
C151       F1117   1.384       .  S
C154        F158   1.383   1_455  S
C154        F159   1.382       .  S
C154        F160   1.385       .  S
F157       C1111   1.384   1_455  S
C161        C162   1.405       .  A
C161        C166   1.408       .  A
C161        H168   1.083       .  S
C162        C163   1.422       .  A
C163        C164   1.414       .  A
C163        C170   1.519       .  S
C164        C165   1.405       .  A
C164        H169   1.083       .  S
C165        C166   1.422       .  A
C166        C647   1.521       .  S
C167        C646   1.521   1_545  S
C167        F171   1.385       .  S
C167        F172   1.383   1_545  S
C167        F173   1.382       .  S
C170        F174   1.382       .  S
C170        F175   1.383       .  S
C170        F176   1.385       .  S
C177        C178   1.402       .  A
C177        C182   1.409       .  A
C177       H1144   1.083       .  S
C178        C179   1.421       .  A
C179        C180   1.411       .  A
C179        C186   1.520       .  S
C180        C181   1.404       .  A
C180        H185   1.083       .  S
C181        C182   1.422       .  A
C182       C1143   1.520       .  S
C183       C1142   1.520       .  S
C183        F187   1.385   1_655  S
C183        F188   1.384       .  S
C183        F189   1.382   1_655  S
H184       C1137   1.083   1_455  S
C186        F190   1.382       .  S
C186        F191   1.382       .  S
C186        F192   1.385       .  S
C193        C198   1.409       .  A
C193        C434   1.403   1_554  A
C193        H200   1.082       .  S
C194        C195   1.423       .  A
C194        C433   1.403       .  A
C195        C196   1.415       .  A
C195        C202   1.520       .  S
C196        C197   1.407       .  A
C196        H201   1.083       .  S
C197        C438   1.423       .  A
C198        C437   1.426   1_554  A
C198        C199   1.522       .  S
C199        F203   1.385       .  S
C199        F205   1.383       .  S
C199        F444   1.382       .  S
C202        F206   1.383       .  S
C202        F208   1.385       .  S
C202        F447   1.383       .  S
F204        C439   1.381       .  S
F207        C442   1.382       .  S
C209        C210   1.407       .  A
C209        C214   1.412       .  A
C209        H216   1.083       .  S
C210        C451   1.419   1_554  A
C211        C212   1.411       .  A
C211        C450   1.421       .  A
C211        C218   1.520       .  S
C212        C453   1.406       .  A
C212        H217   1.083       .  S
C213        C214   1.420       .  A
C213        C452   1.404   1_554  A
C214        C215   1.520       .  S
C215        F219   1.385       .  S
C215        F221   1.384       .  S
C215        F460   1.382       .  S
C218        F222   1.383       .  S
C218        F224   1.385       .  S
C218        F463   1.381       .  S
F220        C455   1.382       .  S
F223        C458   1.381       .  S
C225        C226   1.406       .  A
C225        C230   1.412       .  A
C225        H232   1.083       .  S
C226        C467   1.422       .  A
C227        C228   1.414       .  A
C227        C466   1.423   1_554  A
C227        C234   1.519       .  S
C228        C469   1.406   1_554  A
C228        H233   1.083       .  S
C229        C230   1.419       .  A
C229        C468   1.403       .  A
C230        C231   1.519       .  S
C231        F235   1.385       .  S
C231        F236   1.382       .  S
C231        F477   1.382       .  S
C234        F239   1.381       .  S
C234        F240   1.385       .  S
C234        F478   1.383       .  S
F237        C471   1.383       .  S
F238        C474   1.384       .  S
C241        N242   1.362       .  A
C241        N246   1.361       .  A
C241        C450   1.493       .  S
C243        N244   1.362       .  A
C243        C466   1.498       .  S
N244        C245   1.361       .  A
C245        C434   1.494       .  S
C247        N248   1.365       .  A
C247        N252   1.362       .  A
C247        C402   1.499       .  S
N248        C249   1.364       .  A
C249        N250   1.357       .  A
C249        C421   1.492       .  S
N250        C251   1.356       .  A
C251        N252   1.359       .  A
C251        C386   1.486       .  S
C253        N254   1.364       .  A
C253        N258   1.366       .  A
C253        C354   1.502       .  S
N254        C255   1.363       .  A
C255        N256   1.356       .  A
C255        C370   1.489       .  S
N256        C257   1.357       .  A
C257        N258   1.365       .  A
C257        C437   1.499       .  S
O259       Ni267   1.922       .  S
O259        C749   1.281   1_545  A
O260       Ni267   1.925       .  S
O260        C750   1.282   1_545  A
O261       Ni267   1.917       .  S
O261        C271   1.279       .  A
O262       Ni267   1.919       .  S
O262        C752   1.280   1_545  A
O263       Ni268   1.935       .  S
O263        C272   1.286       .  A
O264       Ni268   1.934       .  S
O264        C751   1.285       .  A
O265       Ni268   1.911       .  S
O265        C270   1.278       .  A
O266       Ni268   1.913       .  S
O266        C269   1.278       .  A
Ni267      Ni748   2.388   1_545  S
Ni268      Ni747   2.388       .  S
C269        C285   1.459       .  S
C269        O739   1.281       .  A
C270        C286   1.459       .  S
C270        O740   1.282       .  A
C271        C341   1.486       .  S
C271        O744   1.285   1_545  A
C272        C405   1.499       .  S
C272        O742   1.280       .  A
O273       Ni521   1.933       .  S
O274       Ni281   1.929       .  S
O274        C284   1.283       .  A
O275       Ni281   1.914       .  S
O275        C765   1.279   1_545  A
O276        C766   1.281   1_545  A
O277        C286   1.278       .  A
O278       Ni282   1.920       .  S
O278        C285   1.280       .  A
O279       Ni522   1.928   1_545  S
O280       Ni282   1.932       .  S
O280        C283   1.283       .  A
Ni281       O513   1.936   1_545  S
Ni281      Ni762   2.388   1_545  S
Ni282       O519   1.927       .  S
Ni282      Ni761   2.388       .  S
C283        C357   1.502       .  S
C284        C469   1.493       .  S
C285        O755   1.279       .  A
C286        O756   1.281       .  A
C287        N288   1.362       .  A
C287        N292   1.359       .  A
C287        C322   1.489       .  S
N288        C289   1.363       .  A
C289        N290   1.360       .  A
C289        C338   1.486       .  S
N290        C291   1.361       .  A
C291        N292   1.357       .  A
C291        C389   1.491       .  S
O293       Ni301   1.927       .  S
O293        C303   1.283       .  A
O294       Ni301   1.926       .  S
O294       C1264   1.284   1_455  A
O295       Ni301   1.917       .  S
O295        C305   1.280       .  A
O296       Ni301   1.917       .  S
O296        C306   1.279       .  A
O297       Ni302   1.918       .  S
O297       C1266   1.280       .  A
O298       Ni302   1.919       .  S
O298       C1265   1.280       .  A
O299       Ni302   1.924       .  S
O299        C304   1.281       .  A
O300       Ni302   1.923       .  S
O300       C1263   1.281       .  A
Ni301     Ni1262   2.389   1_455  S
Ni302     Ni1261   2.389       .  S
C303        C325   1.488       .  S
C303       O1260   1.281   1_455  A
C304        C418   1.491       .  S
C304       O1254   1.284       .  A
C305        C317   1.459       .  S
C305       O1258   1.280   1_455  A
C306        C318   1.459       .  S
C306       O1257   1.280   1_455  A
O307        C317   1.279       .  A
O308       Ni315   1.921       .  S
O308        C318   1.280       .  A
O309      Ni1035   1.925       .  S
O310       Ni315   1.928       .  S
O310        C320   1.284       .  A
O311      Ni1036   1.926   1_455  S
O312       Ni316   1.923       .  S
O312        C319   1.282       .  A
O313       Ni316   1.915       .  S
O313       C1278   1.279       .  A
O314       C1277   1.280       .  A
Ni315      O1029   1.924   1_455  S
Ni315     Ni1276   2.388   1_455  S
Ni316      O1031   1.927       .  S
Ni316     Ni1275   2.388       .  S
C317       O1274   1.280   1_455  A
C318       O1273   1.279   1_455  A
C319        C453   1.492       .  S
C320        C373   1.493       .  S
C321        C322   1.405       .  A
C321        C326   1.409       .  A
C321        H328   1.083       .  S
C322        C323   1.419       .  A
C323        C324   1.412       .  A
C323        C330   1.518       .  S
C324        C325   1.405       .  A
C324       H1289   1.083       .  S
C325        C326   1.419       .  A
C326        C327   1.519       .  S
C327        F331   1.385       .  S
C327        F332   1.382   1_455  S
C327        F333   1.383       .  S
H329       C1284   1.083       .  S
C330       F1294   1.384       .  S
C330        F335   1.382       .  S
C330       F1296   1.385       .  S
F334       C1290   1.384       .  S
F336       C1290   1.385       .  S
C337        C338   1.403       .  A
C337        C342   1.411       .  A
C337        H344   1.083       .  S
C338        C339   1.418       .  A
C339        C340   1.411       .  A
C339        C826   1.517       .  S
C340        C341   1.403       .  A
C340        H825   1.083       .  S
C341        C342   1.419       .  A
C342        C343   1.518       .  S
C343        F347   1.385       .  S
C343        F348   1.382       .  S
C343        F349   1.382       .  S
H345        C820   1.083       .  S
C346        C819   1.517       .  S
C346        F350   1.384       .  S
C346        F351   1.381       .  S
C346        F352   1.385       .  S
C353        C354   1.406   1_554  A
C353        C358   1.414       .  A
C353        H360   1.083       .  S
C355        C356   1.417       .  A
C355        C362   1.520       .  S
C356        H361   1.083       .  S
C357        C358   1.422   1_556  A
C358        C359   1.519       .  S
C359        F363   1.385       .  S
C359        F365   1.382       .  S
C362        F366   1.383       .  S
C362        F368   1.385       .  S
C369        C370   1.405   1_554  A
C369        C374   1.413       .  A
C369        H376   1.083       .  S
C371        C372   1.412       .  A
C371        C378   1.521       .  S
C372        C373   1.404       .  A
C372        H377   1.083       .  S
C374        C375   1.518       .  S
C375        F379   1.385       .  S
C375        F381   1.382       .  S
C378        F382   1.381       .  S
C378        F384   1.385       .  S
C385        C866   1.404       .  A
C385        C390   1.410   1_565  A
C385        H392   1.082       .  S
C386        C865   1.404       .  A
C386       C1347   1.419       .  A
C387       C1346   1.419   1_455  A
C387        C388   1.409       .  A
C387        C394   1.520       .  S
C388        C869   1.405       .  A
C388        H393   1.079       .  S
C389        C868   1.405   1_545  A
C389       C1350   1.423       .  A
C390       C1349   1.423       .  A
C390        C391   1.520       .  S
C391        F395   1.385       .  S
C391        F396   1.382       .  S
C391       F1357   1.384       .  S
C394        F398   1.384   1_455  S
C394        F399   1.382       .  S
C394        F400   1.385       .  S
F397       C1351   1.384   1_455  S
C401        C402   1.406       .  A
C401        C406   1.411       .  A
C401        H408   1.083       .  S
C402        C403   1.421       .  A
C403        C404   1.414       .  A
C403        C410   1.518       .  S
C404        C405   1.407       .  A
C404        H409   1.083       .  S
C405        C406   1.425       .  A
C406        C887   1.522       .  S
C407        C886   1.522   1_545  S
C407        F411   1.385       .  S
C407        F412   1.383       .  S
C407        F413   1.383       .  S
C410        F414   1.382       .  S
C410        F415   1.384       .  S
C410        F416   1.385       .  S
C417        C418   1.403       .  A
C417        C422   1.409       .  A
C417       H1384   1.083       .  S
C418        C419   1.421       .  A
C419        C420   1.412       .  A
C419        C426   1.519       .  S
C420        C421   1.405       .  A
C420        H425   1.083       .  S
C421        C422   1.422       .  A
C422       C1383   1.521       .  S
C423       C1382   1.521       .  S
C423        F427   1.385   1_655  S
C423        F428   1.383       .  S
C423        F429   1.382   1_655  S
H424       C1377   1.083   1_455  S
C426        F430   1.382       .  S
C426        F431   1.383       .  S
C426        F432   1.385       .  S
C433        C438   1.408       .  A
C433        H440   1.083       .  S
C434        C435   1.421       .  A
C435        C436   1.413       .  A
C435        C442   1.520       .  S
C436        C437   1.407       .  A
C436        H441   1.082       .  S
C438        C439   1.521       .  S
C439        F443   1.385       .  S
C439        F445   1.383       .  S
C442        F446   1.384       .  S
C442        F448   1.385       .  S
C449        C450   1.407       .  A
C449        C454   1.410       .  A
C449        H456   1.083       .  S
C451        C452   1.410       .  A
C451        C458   1.519       .  S
C452        H457   1.083       .  S
C453        C454   1.420       .  A
C454        C455   1.520       .  S
C455        F459   1.385       .  S
C455        F461   1.384       .  S
C458        F462   1.383       .  S
C458        F464   1.385       .  S
C465        C466   1.407       .  A
C465        C470   1.410       .  A
C465        H472   1.083       .  S
C467        C468   1.412       .  A
C467        C474   1.519       .  S
C468        H473   1.084       .  S
C469        C470   1.419       .  A
C470        C471   1.519       .  S
C471        F475   1.385       .  S
C471        F476   1.382       .  S
C474        F479   1.380       .  S
C474        F480   1.385       .  S
C481        N482   1.363       .  A
C481        N486   1.361   1_554  A
C481        C690   1.492       .  S
N482        C723   1.363   1_554  A
C483        N722   1.362       .  A
C483        N484   1.362       .  A
C483        C706   1.495       .  S
N484        C485   1.362       .  A
C485        N726   1.358       .  A
C485        C674   1.495       .  S
N486        C725   1.359       .  A
C487        N488   1.363       .  A
C487        N492   1.363       .  A
C487        C642   1.494       .  S
N488        C489   1.363       .  A
C489        N490   1.357       .  A
C489        C661   1.489       .  S
N490        C491   1.355       .  A
C491        N492   1.359       .  A
C491        C626   1.483       .  S
C493        N494   1.364       .  A
C493        N498   1.365       .  A
C493        C594   1.504       .  S
N494        C495   1.364       .  A
C495        N496   1.357       .  A
C495        C610   1.494       .  S
N496        C497   1.358       .  A
C497        N498   1.363       .  A
C497        C677   1.497       .  S
O499       Ni507   1.918       .  S
O500       Ni507   1.921       .  S
O501       Ni507   1.916       .  S
O501        C511   1.279       .  A
O502       Ni507   1.915       .  S
O503       Ni508   1.934       .  S
O503        C512   1.285       .  A
O504       Ni508   1.932       .  S
O505       Ni508   1.914       .  S
O505        C510   1.278       .  A
O506       Ni508   1.911       .  S
O506        C509   1.278       .  A
C509        C525   1.456       .  S
C510        C526   1.459       .  S
C511        C581   1.500       .  S
C512        C645   1.492       .  S
O513        C763   1.285       .  A
O514       Ni521   1.928       .  S
O514        C524   1.282       .  A
O515       Ni521   1.917       .  S
O516       Ni761   1.918   1_554  S
O517       Ni762   1.917   1_554  S
O517        C526   1.280       .  A
O518       Ni522   1.914       .  S
O518        C525   1.279       .  A
O519        C764   1.283       .  A
O520       Ni522   1.931       .  S
O520        C523   1.283       .  A
Ni521       O756   1.922       .  S
Ni522       O757   1.914       .  S
C523        C597   1.501       .  S
C523        O753   1.284       .  A
C524        C709   1.491       .  S
C524        O759   1.283       .  A
C527        N528   1.362       .  A
C527        N532   1.361       .  A
C527        C562   1.492       .  S
N528        C529   1.365       .  A
C529        N530   1.359       .  A
C529        C578   1.498       .  S
N530        C531   1.358       .  A
C531        N532   1.358       .  A
C531        C629   1.486       .  S
O533       Ni541   1.929       .  S
O533        C543   1.284       .  A
O534       Ni541   1.929       .  S
O534       C1504   1.284   1_455  A
O535       Ni541   1.912       .  S
O535        C545   1.278       .  A
O536       Ni541   1.912       .  S
O536        C546   1.278       .  A
O537       Ni542   1.920       .  S
O537       C1506   1.281       .  A
O538       Ni542   1.922       .  S
O538       C1505   1.281       .  A
O539       Ni542   1.919       .  S
O539        C544   1.280       .  A
O540       Ni542   1.917       .  S
O540       C1503   1.280       .  A
Ni541     Ni1502   2.389   1_455  S
Ni542     Ni1501   2.389       .  S
C543        C565   1.489       .  S
C543       O1500   1.280   1_455  A
C544        C658   1.488       .  S
C544       O1494   1.284       .  A
C545        C557   1.458       .  S
C545       O1498   1.281   1_455  A
C546        C558   1.458       .  S
C546       O1497   1.281   1_455  A
O547       Ni795   1.916       .  S
O547        C557   1.280       .  A
O548       Ni555   1.918       .  S
O548        C558   1.280       .  A
O549      Ni1755   1.924       .  S
O549        C799   1.283       .  A
O550       Ni555   1.927       .  S
O550        C560   1.283       .  A
O551      Ni1756   1.927   1_455  S
O551        C800   1.282       .  A
O552       Ni556   1.925       .  S
O552        C559   1.282       .  A
O553       Ni556   1.915       .  S
O553       C1518   1.279       .  A
O554       Ni796   1.917       .  S
O554       C1517   1.279       .  A
Ni555       O787   1.914   1_554  S
Ni555      O1749   1.925   1_455  S
Ni555     Ni1516   2.390   1_455  S
Ni556      O1751   1.927       .  S
Ni556       O794   1.920   1_554  S
Ni556     Ni1515   2.390       .  S
C557       O1514   1.279   1_455  A
C558       O1513   1.279   1_455  A
C559        C693   1.490       .  S
C559        O789   1.283       .  A
C560        C613   1.487       .  S
C560        O791   1.282       .  A
C561        C562   1.404       .  A
C561        C566   1.408       .  A
C561        H568   1.082       .  S
C562        C563   1.421       .  A
C563        C564   1.411       .  A
C563        C570   1.517       .  S
C564        C565   1.404       .  A
C564       H1529   1.083       .  S
C565        C566   1.420       .  A
C566        C567   1.520   1_455  S
C567        F571   1.385       .  S
C567        F572   1.382       .  S
C567        F573   1.383   1_655  S
H569       C1524   1.083       .  S
C570       F1534   1.383       .  S
C570        F575   1.381       .  S
C570       F1536   1.385       .  S
F574       C1530   1.383       .  S
F576       C1530   1.385       .  S
C577        C578   1.405       .  A
C577        C582   1.411       .  A
C577        H584   1.079       .  S
C578        C579   1.424       .  A
C579        C580   1.410       .  A
C580        C581   1.406       .  A
C581        C582   1.425       .  A
C582        C583   1.522       .  S
C583        F587   1.385       .  S
C583        F588   1.383       .  S
C583        F589   1.384       .  S
C586        F590   1.382       .  S
C586        F591   1.384   1_565  S
C586        F592   1.385       .  S
C593        C594   1.407       .  A
C593        C598   1.413       .  A
C593        H600   1.083       .  S
C594        C835   1.424       .  A
C595        C834   1.423       .  A
C595        C596   1.416       .  A
C595        C602   1.520       .  S
C596        C837   1.407       .  A
C596        H601   1.083       .  S
C597        C836   1.407       .  A
C597        C598   1.421       .  A
C598        C599   1.519       .  S
C599        F603   1.385       .  S
C599        F844   1.384       .  S
C599        F605   1.382       .  S
C602        F606   1.382       .  S
C602        F847   1.384       .  S
C602        F608   1.385       .  S
F604        C839   1.384       .  S
F607        C842   1.384       .  S
C609        C610   1.406       .  A
C609        C614   1.413       .  A
C609        H616   1.083       .  S
C610        C851   1.422       .  A
C611        C850   1.420       .  A
C611        C612   1.410       .  A
C611        C618   1.519       .  S
C612        C613   1.403   1_556  A
C612        H617   1.083       .  S
C613        C854   1.418       .  A
C614        C853   1.420       .  A
C614        C615   1.518       .  S
C615        F619   1.384       .  S
C615        F860   1.384       .  S
C615        F621   1.382       .  S
C618        F622   1.381       .  S
C618        F863   1.383       .  S
C618        F624   1.385       .  S
F620        C855   1.383       .  S
F623        C858   1.383       .  S
C625        C630   1.410       .  A
C625        H632   1.082       .  S
C626       C1587   1.418       .  A
C627       C1586   1.418   1_455  A
C627        C628   1.409       .  A
C627        C634   1.519       .  S
C628        H633   1.082       .  S
C629       C1590   1.419       .  A
C630       C1589   1.419       .  A
C630        C631   1.518       .  S
C631        F635   1.385       .  S
C631        F636   1.381       .  S
C631       F1597   1.384       .  S
C634        F638   1.383   1_455  S
C634        F639   1.382       .  S
C634        F640   1.385       .  S
F637       C1591   1.384   1_455  S
C641        C642   1.404       .  A
C641        C646   1.408       .  A
C641        H648   1.083       .  S
C642        C643   1.422       .  A
C643        C644   1.414       .  A
C643        C650   1.519       .  S
C644        C645   1.405       .  A
C644        H649   1.083       .  S
C645        C646   1.422       .  A
C647        F651   1.385       .  S
C647        F652   1.383       .  S
C647        F653   1.382       .  S
C650        F654   1.382       .  S
C650        F655   1.383       .  S
C650        F656   1.385       .  S
C657        C658   1.402       .  A
C657        C662   1.409       .  A
C657       H1624   1.083       .  S
C658        C659   1.421       .  A
C659        C660   1.411       .  A
C659        C666   1.520       .  S
C660        C661   1.404       .  A
C660        H665   1.083       .  S
C661        C662   1.422       .  A
C662       C1623   1.520       .  S
C663       C1622   1.520       .  S
C663        F667   1.385   1_655  S
C663        F668   1.384       .  S
C663        F669   1.382   1_655  S
H664       C1617   1.083   1_455  S
C666        F670   1.382       .  S
C666        F671   1.382       .  S
C666        F672   1.385       .  S
C673        C914   1.403   1_554  A
C673        C678   1.409       .  A
C673        H680   1.082       .  S
C674        C913   1.403       .  A
C674        C675   1.423       .  A
C675        C676   1.415       .  A
C675        C682   1.520       .  S
C676        C677   1.407       .  A
C676        H681   1.083       .  S
C677        C918   1.423       .  A
C678        C917   1.426   1_554  A
C678        C679   1.522       .  S
C679        F683   1.385       .  S
C679        F924   1.382       .  S
C679        F685   1.383       .  S
C682        F686   1.383       .  S
C682        F927   1.383       .  S
C682        F688   1.385       .  S
F684        C919   1.381       .  S
F687        C922   1.382       .  S
C689        C690   1.407       .  A
C689        C694   1.412       .  A
C689        H696   1.083       .  S
C690        C931   1.419   1_554  A
C691        C930   1.421       .  A
C691        C692   1.411       .  A
C691        C698   1.520       .  S
C692        C933   1.406       .  A
C692        H697   1.083       .  S
C693        C932   1.404   1_554  A
C693        C694   1.420       .  A
C694        C695   1.520       .  S
C695        F699   1.385       .  S
C695        F940   1.382       .  S
C695        F701   1.384       .  S
C698        F702   1.383       .  S
C698        F943   1.381       .  S
C698        F704   1.385       .  S
F700        C935   1.382       .  S
F703        C938   1.381       .  S
C705        C706   1.406       .  A
C705        C710   1.412       .  A
C705        H712   1.083       .  S
C706        C947   1.422       .  A
C707        C946   1.423   1_554  A
C707        C708   1.414       .  A
C707        C714   1.519       .  S
C708        C949   1.406   1_554  A
C708        H713   1.083       .  S
C709        C948   1.403       .  A
C709        C710   1.419       .  A
C710        C711   1.519       .  S
C711        F715   1.385       .  S
C711        F716   1.382       .  S
C711        F957   1.382       .  S
C714        F958   1.383       .  S
C714        F719   1.381       .  S
C714        F720   1.385       .  S
F717        C951   1.383       .  S
F718        C954   1.384       .  S
C721        N722   1.362       .  A
C721        N726   1.361       .  A
C721        C930   1.493       .  S
C723        N724   1.362       .  A
C723        C946   1.498       .  S
N724        C725   1.361       .  A
C725        C914   1.494       .  S
C727        N728   1.365       .  A
C727        N732   1.362       .  A
C727        C882   1.499       .  S
N728        C729   1.364       .  A
C729        N730   1.357       .  A
C729        C901   1.492       .  S
N730        C731   1.356       .  A
C731        N732   1.359       .  A
C731        C866   1.486       .  S
C733        N734   1.364       .  A
C733        N738   1.366       .  A
C733        C834   1.502       .  S
N734        C735   1.363       .  A
C735        N736   1.356       .  A
C735        C850   1.489       .  S
N736        C737   1.357       .  A
C737        N738   1.365       .  A
C737        C917   1.499       .  S
O739       Ni747   1.922       .  S
O740       Ni747   1.925       .  S
O741       Ni747   1.917       .  S
O741        C751   1.279       .  A
O742       Ni747   1.919       .  S
O743       Ni748   1.935       .  S
O743        C752   1.286       .  A
O744       Ni748   1.934       .  S
O745       Ni748   1.911       .  S
O745        C750   1.278       .  A
O746       Ni748   1.913       .  S
O746        C749   1.278       .  A
C749        C765   1.459       .  S
C750        C766   1.459       .  S
C751        C821   1.486       .  S
C752        C885   1.499       .  S
O754       Ni761   1.929       .  S
O754        C764   1.283       .  A
O755       Ni761   1.914       .  S
O757        C766   1.278       .  A
O758       Ni762   1.920       .  S
O758        C765   1.280       .  A
O760       Ni762   1.932       .  S
O760        C763   1.283       .  A
C763        C837   1.502       .  S
C764        C949   1.493       .  S
C767        N768   1.362       .  A
C767        N772   1.359       .  A
C767        C802   1.489       .  S
N768        C769   1.363       .  A
C769        N770   1.360       .  A
C769        C818   1.486       .  S
N770        C771   1.361       .  A
C771        N772   1.357       .  A
C771        C869   1.491       .  S
O773       Ni781   1.927       .  S
O773        C783   1.283       .  A
O774       Ni781   1.926       .  S
O774       C1744   1.284   1_455  A
O775       Ni781   1.917       .  S
O775        C785   1.280       .  A
O776       Ni781   1.917       .  S
O776        C786   1.279       .  A
O777       Ni782   1.918       .  S
O777       C1746   1.280       .  A
O778       Ni782   1.919       .  S
O778       C1745   1.280       .  A
O779       Ni782   1.924       .  S
O779        C784   1.281       .  A
O780       Ni782   1.923       .  S
O780       C1743   1.281       .  A
Ni781     Ni1742   2.389   1_455  S
Ni782     Ni1741   2.389       .  S
C783        C805   1.488       .  S
C783       O1740   1.281   1_455  A
C784        C898   1.491       .  S
C784       O1734   1.284       .  A
C785        C797   1.459       .  S
C785       O1738   1.280   1_455  A
C786        C798   1.459       .  S
C786       O1737   1.280   1_455  A
O787        C797   1.279       .  A
O788       Ni795   1.921       .  S
O788        C798   1.280       .  A
O789      Ni1515   1.925       .  S
O790       Ni795   1.928       .  S
O790        C800   1.284       .  A
O791      Ni1516   1.927   1_455  S
O792       Ni796   1.923       .  S
O792        C799   1.282       .  A
O793       Ni796   1.915       .  S
O793       C1758   1.279       .  A
O794       C1757   1.280       .  A
Ni795      O1509   1.924   1_455  S
Ni795     Ni1756   2.388   1_455  S
Ni796      O1511   1.927       .  S
Ni796     Ni1755   2.388       .  S
C797       O1754   1.280   1_455  A
C798       O1753   1.279   1_455  A
C799        C933   1.492       .  S
C800        C853   1.493       .  S
C801        C802   1.405       .  A
C801        C806   1.409       .  A
C801        H808   1.083       .  S
C802        C803   1.419       .  A
C803        C804   1.412       .  A
C803        C810   1.518       .  S
C804        C805   1.405       .  A
C804       H1769   1.083       .  S
C805        C806   1.419       .  A
C806        C807   1.519       .  S
C807        F811   1.385       .  S
C807        F812   1.382   1_455  S
C807        F813   1.383       .  S
H809       C1764   1.083       .  S
C810       F1774   1.384       .  S
C810        F815   1.382       .  S
C810       F1776   1.385       .  S
F814       C1770   1.384       .  S
F816       C1770   1.385       .  S
C817        C818   1.403       .  A
C817        C822   1.411       .  A
C817        H824   1.083       .  S
C818        C819   1.418       .  A
C819        C820   1.411       .  A
C820        C821   1.403       .  A
C821        C822   1.419       .  A
C822        C823   1.518       .  S
C823        F827   1.385       .  S
C823        F828   1.382       .  S
C823        F829   1.382       .  S
C826        F830   1.384       .  S
C826        F831   1.380       .  S
C826        F832   1.385       .  S
C833        C834   1.406   1_554  A
C833        C838   1.414       .  A
C833        H840   1.083       .  S
C835        C836   1.417       .  A
C835        C842   1.520       .  S
C836        H841   1.083       .  S
C837        C838   1.422   1_556  A
C838        C839   1.519       .  S
C839        F843   1.385       .  S
C839        F845   1.382       .  S
C842        F846   1.383       .  S
C842        F848   1.385       .  S
C849        C850   1.405   1_554  A
C849        C854   1.413       .  A
C849        H856   1.083       .  S
C851        C852   1.412       .  A
C851        C858   1.521       .  S
C852        C853   1.404       .  A
C852        H857   1.083       .  S
C854        C855   1.518       .  S
C855        F859   1.385       .  S
C855        F861   1.382       .  S
C858        F862   1.381       .  S
C858        F864   1.385       .  S
C865        C870   1.410       .  A
C865        H872   1.082       .  S
C866       C1827   1.419       .  A
C867       C1826   1.419   1_455  A
C867        C868   1.409       .  A
C867        C874   1.520       .  S
C868        H873   1.079       .  S
C869       C1830   1.423       .  A
C870       C1829   1.423       .  A
C870        C871   1.520       .  S
C871        F875   1.385       .  S
C871        F876   1.382       .  S
C871       F1837   1.384       .  S
C874        F878   1.384   1_455  S
C874        F879   1.382       .  S
C874        F880   1.385       .  S
F877       C1831   1.384   1_455  S
C881        C882   1.406       .  A
C881        C886   1.411       .  A
C881        H888   1.083       .  S
C882        C883   1.421       .  A
C883        C884   1.414       .  A
C883        C890   1.518       .  S
C884        C885   1.407       .  A
C884        H889   1.083       .  S
C885        C886   1.425       .  A
C887        F891   1.385       .  S
C887        F892   1.383       .  S
C887        F893   1.383       .  S
C890        F894   1.382       .  S
C890        F895   1.384       .  S
C890        F896   1.385       .  S
C897        C898   1.403       .  A
C897        C902   1.409       .  A
C897       H1864   1.083       .  S
C898        C899   1.421       .  A
C899        C900   1.412       .  A
C899        C906   1.519       .  S
C900        C901   1.405       .  A
C900        H905   1.083       .  S
C901        C902   1.422       .  A
C902       C1863   1.521       .  S
C903       C1862   1.521       .  S
C903        F907   1.385   1_655  S
C903        F908   1.383       .  S
C903        F909   1.382   1_655  S
H904       C1857   1.083   1_455  S
C906        F910   1.382       .  S
C906        F911   1.383       .  S
C906        F912   1.385       .  S
C913        C918   1.408       .  A
C913        H920   1.083       .  S
C914        C915   1.421       .  A
C915        C916   1.413       .  A
C915        C922   1.520       .  S
C916        C917   1.407       .  A
C916        H921   1.082       .  S
C918        C919   1.521       .  S
C919        F923   1.385       .  S
C919        F925   1.383       .  S
C922        F926   1.384       .  S
C922        F928   1.385       .  S
C929        C930   1.407       .  A
C929        C934   1.410       .  A
C929        H936   1.083       .  S
C931        C932   1.410       .  A
C931        C938   1.519       .  S
C932        H937   1.083       .  S
C933        C934   1.420       .  A
C934        C935   1.520       .  S
C935        F939   1.385       .  S
C935        F941   1.384       .  S
C938        F942   1.383       .  S
C938        F944   1.385       .  S
C945        C946   1.407       .  A
C945        C950   1.410       .  A
C945        H952   1.083       .  S
C947        C948   1.412       .  A
C947        C954   1.519       .  S
C948        H953   1.084       .  S
C949        C950   1.419       .  A
C950        C951   1.519       .  S
C951        F955   1.385       .  S
C951        F956   1.382       .  S
C954        F959   1.380       .  S
C954        F960   1.385       .  S
C961        N962   1.363       .  A
C961        N966   1.361   1_554  A
C961       C1170   1.492       .  S
N962       C1203   1.363   1_554  A
C963       N1202   1.362       .  A
C963        N964   1.362       .  A
C963       C1186   1.495       .  S
N964        C965   1.362       .  A
C965       N1206   1.358       .  A
C965       C1154   1.495       .  S
N966       C1205   1.359       .  A
C967        N968   1.363       .  A
C967        N972   1.363       .  A
C967       C1122   1.494       .  S
N968        C969   1.363       .  A
C969        N970   1.357       .  A
C969       C1141   1.489       .  S
N970        C971   1.355       .  A
C971        N972   1.359       .  A
C971       C1106   1.483       .  S
C973        N974   1.365       .  A
C973        N978   1.365       .  A
C973       C1074   1.504       .  S
N974        C975   1.364       .  A
C975        N976   1.357       .  A
C975       C1090   1.494       .  S
N976        C977   1.358       .  A
C977        N978   1.363       .  A
C977       C1157   1.497       .  S
O979       Ni987   1.918       .  S
O979       C1469   1.280   1_545  A
O980       Ni987   1.921       .  S
O980       C1470   1.281   1_545  A
O981       Ni987   1.916       .  S
O981        C991   1.279       .  A
O982       Ni987   1.915       .  S
O982       C1472   1.279   1_545  A
O983       Ni988   1.934       .  S
O983        C992   1.285       .  A
O984       Ni988   1.932       .  S
O984       C1471   1.286       .  A
O985       Ni988   1.914       .  S
O985        C990   1.278       .  A
O986       Ni988   1.912       .  S
O986        C989   1.278       .  A
Ni987     Ni1468   2.387   1_545  S
Ni988     Ni1467   2.387       .  S
C989       C1005   1.456       .  S
C989       O1459   1.280       .  A
C990       C1006   1.459       .  S
C990       O1460   1.281       .  A
C991       C1061   1.501       .  S
C991       O1464   1.286   1_545  A
C992       C1125   1.492       .  S
C992       O1462   1.279       .  A
O993      Ni1721   1.936       .  S
O993       C1243   1.285       .  A
O994      Ni1001   1.927       .  S
O994       C1004   1.282       .  A
O995      Ni1001   1.917       .  S
O995       C1485   1.280   1_545  A
O996      Ni1241   1.918   1_554  S
O996       C1486   1.280   1_545  A
O997      Ni1242   1.917   1_554  S
O997       C1006   1.280       .  A
O998      Ni1002   1.914       .  S
O998       C1005   1.279       .  A
O999      Ni1722   1.927   1_545  S
O999       C1244   1.283       .  A
O1000     Ni1002   1.931       .  S
O1000      C1003   1.284       .  A
Ni1001     O1713   1.933   1_545  S
Ni1001     O1236   1.922       .  S
Ni1001    Ni1482   2.388   1_545  S
Ni1002     O1237   1.914       .  S
Ni1002     O1719   1.928       .  S
Ni1002    Ni1481   2.388       .  S
C1003      C1077   1.501       .  S
C1003      O1233   1.284       .  A
C1004      C1189   1.491       .  S
C1004      O1239   1.283       .  A
C1005      O1475   1.280       .  A
C1006      O1476   1.280       .  A
C1007      N1008   1.363       .  A
C1007      N1012   1.361       .  A
C1007      C1042   1.492       .  S
N1008      C1009   1.365       .  A
C1009      N1010   1.359       .  A
C1009      C1058   1.500       .  S
N1010      C1011   1.358       .  A
C1011      N1012   1.358       .  A
C1011      C1109   1.486       .  S
O1013     Ni1021   1.929       .  S
O1013      C1023   1.284       .  A
O1014     Ni1021   1.929       .  S
O1015     Ni1021   1.912       .  S
O1015      C1025   1.278       .  A
O1016     Ni1021   1.912       .  S
O1016      C1026   1.278       .  A
O1017     Ni1022   1.921       .  S
O1018     Ni1022   1.922       .  S
O1019     Ni1022   1.919       .  S
O1019      C1024   1.280       .  A
O1020     Ni1022   1.917       .  S
C1023      C1045   1.489       .  S
C1024      C1138   1.488       .  S
C1025      C1037   1.458       .  S
C1026      C1038   1.458       .  S
O1027     Ni1275   1.916       .  S
O1027      C1037   1.280       .  A
O1028     Ni1035   1.918       .  S
O1028      C1038   1.280       .  A
O1029      C1279   1.283       .  A
O1030     Ni1035   1.927       .  S
O1030      C1040   1.283       .  A
O1031      C1280   1.282       .  A
O1032     Ni1036   1.925       .  S
O1032      C1039   1.282       .  A
O1033     Ni1036   1.915       .  S
O1034     Ni1276   1.917       .  S
Ni1035     O1267   1.914   1_554  S
Ni1036     O1274   1.920   1_554  S
C1039      C1173   1.490       .  S
C1039      O1269   1.283       .  A
C1040      C1093   1.487       .  S
C1040      O1271   1.282       .  A
C1041      C1042   1.404       .  A
C1041      C1046   1.408       .  A
C1041      H1048   1.082       .  S
C1042      C1043   1.421       .  A
C1043      C1044   1.411       .  A
C1043      C1050   1.517       .  S
C1044      C1045   1.404       .  A
C1045      C1046   1.420       .  A
C1046      C1047   1.520       .  S
C1047      F1051   1.385       .  S
C1047      F1052   1.382       .  S
C1047      F1053   1.383       .  S
C1050      F1055   1.381       .  S
C1057      C1058   1.405       .  A
C1057      C1062   1.411       .  A
C1057      H1064   1.079       .  S
C1058      C1059   1.424       .  A
C1059      C1060   1.410       .  A
C1059      C1546   1.522   1_545  S
C1060      C1061   1.406       .  A
C1060      H1545   1.082   1_545  S
C1061      C1062   1.426       .  A
C1062      C1063   1.522       .  S
C1063      F1067   1.385       .  S
C1063      F1068   1.383       .  S
C1063      F1069   1.384       .  S
H1065      C1540   1.082       .  S
C1066      C1539   1.521       .  S
C1066      F1070   1.383       .  S
C1066      F1071   1.384       .  S
C1066      F1072   1.385       .  S
C1073      C1074   1.407       .  A
C1073      C1078   1.413       .  A
C1073      H1080   1.083       .  S
C1074      C1315   1.424       .  A
C1075      C1314   1.423       .  A
C1075      C1076   1.416       .  A
C1075      C1082   1.520       .  S
C1076      C1317   1.407       .  A
C1076      H1081   1.083       .  S
C1077      C1316   1.407       .  A
C1077      C1078   1.421       .  A
C1078      C1079   1.519       .  S
C1079      F1083   1.385       .  S
C1079      F1324   1.384       .  S
C1079      F1085   1.382       .  S
C1082      F1086   1.382       .  S
C1082      F1327   1.384       .  S
C1082      F1088   1.385       .  S
F1084      C1319   1.384       .  S
F1087      C1322   1.384       .  S
C1089      C1090   1.406       .  A
C1089      C1094   1.413       .  A
C1089      H1096   1.083       .  S
C1090      C1331   1.422       .  A
C1091      C1330   1.420       .  A
C1091      C1092   1.410       .  A
C1091      C1098   1.519       .  S
C1092      C1093   1.403   1_556  A
C1092      H1097   1.083       .  S
C1093      C1334   1.418       .  A
C1094      C1333   1.420       .  A
C1094      C1095   1.518       .  S
C1095      F1099   1.384       .  S
C1095      F1340   1.384       .  S
C1095      F1101   1.382       .  S
C1098      F1102   1.381       .  S
C1098      F1343   1.383       .  S
C1098      F1104   1.385       .  S
F1100      C1335   1.383       .  S
F1103      C1338   1.383       .  S
C1105      C1586   1.403       .  A
C1105      C1110   1.410   1_665  A
C1105      H1112   1.082       .  S
C1106      C1585   1.403       .  A
C1107      C1108   1.410       .  A
C1107      C1114   1.519       .  S
C1108      C1589   1.404       .  A
C1108      H1113   1.082       .  S
C1109      C1588   1.404   1_545  A
C1110      C1111   1.518   1_455  S
C1111      F1115   1.385       .  S
C1111      F1116   1.381       .  S
C1114      F1118   1.383       .  S
C1114      F1119   1.382       .  S
C1114      F1120   1.385       .  S
C1121      C1122   1.405       .  A
C1121      C1126   1.408       .  A
C1121      H1128   1.083       .  S
C1122      C1123   1.422       .  A
C1123      C1124   1.414       .  A
C1123      C1130   1.519       .  S
C1124      C1125   1.405       .  A
C1124      H1129   1.083       .  S
C1125      C1126   1.422       .  A
C1126      C1607   1.521       .  S
C1127      C1606   1.521   1_545  S
C1127      F1131   1.385       .  S
C1127      F1132   1.383   1_545  S
C1127      F1133   1.382       .  S
C1130      F1134   1.382       .  S
C1130      F1135   1.383       .  S
C1130      F1136   1.385       .  S
C1137      C1138   1.402       .  A
C1137      C1142   1.409       .  A
C1138      C1139   1.421       .  A
C1139      C1140   1.411       .  A
C1139      C1146   1.520       .  S
C1140      C1141   1.404       .  A
C1140      H1145   1.083       .  S
C1141      C1142   1.422       .  A
C1143      F1147   1.385       .  S
C1143      F1148   1.384       .  S
C1143      F1149   1.382       .  S
C1146      F1150   1.382       .  S
C1146      F1151   1.382       .  S
C1146      F1152   1.385       .  S
C1153      C1394   1.403   1_554  A
C1153      C1158   1.409       .  A
C1153      H1160   1.082       .  S
C1154      C1393   1.403       .  A
C1154      C1155   1.423       .  A
C1155      C1156   1.415       .  A
C1155      C1162   1.520       .  S
C1156      C1157   1.407       .  A
C1156      H1161   1.083       .  S
C1157      C1398   1.423       .  A
C1158      C1397   1.426   1_554  A
C1158      C1159   1.522       .  S
C1159      F1163   1.385       .  S
C1159      F1404   1.382       .  S
C1159      F1165   1.383       .  S
C1162      F1166   1.383       .  S
C1162      F1407   1.383       .  S
C1162      F1168   1.385       .  S
F1164      C1399   1.381       .  S
F1167      C1402   1.382       .  S
C1169      C1170   1.407       .  A
C1169      C1174   1.412       .  A
C1169      H1176   1.083       .  S
C1170      C1411   1.419   1_554  A
C1171      C1410   1.421       .  A
C1171      C1172   1.411       .  A
C1171      C1178   1.520       .  S
C1172      C1413   1.406       .  A
C1172      H1177   1.083       .  S
C1173      C1412   1.404   1_554  A
C1173      C1174   1.420       .  A
C1174      C1175   1.520       .  S
C1175      F1179   1.385       .  S
C1175      F1420   1.382       .  S
C1175      F1181   1.384       .  S
C1178      F1182   1.383       .  S
C1178      F1423   1.381       .  S
C1178      F1184   1.385       .  S
F1180      C1415   1.382       .  S
F1183      C1418   1.381       .  S
C1185      C1186   1.406       .  A
C1185      C1190   1.412       .  A
C1185      H1192   1.083       .  S
C1186      C1427   1.422       .  A
C1187      C1426   1.423   1_554  A
C1187      C1188   1.414       .  A
C1187      C1194   1.519       .  S
C1188      C1429   1.406   1_554  A
C1188      H1193   1.083       .  S
C1189      C1428   1.403       .  A
C1189      C1190   1.419       .  A
C1190      C1191   1.519       .  S
C1191      F1195   1.385       .  S
C1191      F1196   1.382       .  S
C1191      F1437   1.382       .  S
C1194      F1438   1.383       .  S
C1194      F1199   1.381       .  S
C1194      F1200   1.385       .  S
F1197      C1431   1.383       .  S
F1198      C1434   1.384       .  S
C1201      N1202   1.362       .  A
C1201      N1206   1.361       .  A
C1201      C1410   1.493       .  S
C1203      N1204   1.362       .  A
C1203      C1426   1.498       .  S
N1204      C1205   1.361       .  A
C1205      C1394   1.494       .  S
C1207      N1208   1.365       .  A
C1207      N1212   1.362       .  A
C1207      C1362   1.499       .  S
N1208      C1209   1.364       .  A
C1209      N1210   1.357       .  A
C1209      C1381   1.492       .  S
N1210      C1211   1.356       .  A
C1211      N1212   1.359       .  A
C1211      C1346   1.486       .  S
C1213      N1214   1.364       .  A
C1213      N1218   1.366       .  A
C1213      C1314   1.502       .  S
N1214      C1215   1.363       .  A
C1215      N1216   1.356       .  A
C1215      C1330   1.489       .  S
N1216      C1217   1.357       .  A
C1217      N1218   1.365       .  A
C1217      C1397   1.499       .  S
O1219     Ni1227   1.922       .  S
O1219      C1709   1.281   1_545  A
O1220     Ni1227   1.925       .  S
O1220      C1710   1.282   1_545  A
O1221     Ni1227   1.917       .  S
O1221      C1231   1.279       .  A
O1222     Ni1227   1.919       .  S
O1222      C1712   1.280   1_545  A
O1223     Ni1228   1.935       .  S
O1223      C1232   1.286       .  A
O1224     Ni1228   1.934       .  S
O1224      C1711   1.285       .  A
O1225     Ni1228   1.911       .  S
O1225      C1230   1.278       .  A
O1226     Ni1228   1.913       .  S
O1226      C1229   1.278       .  A
Ni1227    Ni1708   2.388   1_545  S
Ni1228    Ni1707   2.388       .  S
C1229      C1245   1.459       .  S
C1229      O1699   1.281       .  A
C1230      C1246   1.459       .  S
C1230      O1700   1.282       .  A
C1231      C1301   1.486       .  S
C1231      O1704   1.285   1_545  A
C1232      C1365   1.499       .  S
C1232      O1702   1.280       .  A
O1233     Ni1481   1.933       .  S
O1234     Ni1241   1.929       .  S
O1234      C1244   1.283       .  A
O1235     Ni1241   1.914       .  S
O1235      C1725   1.279   1_545  A
O1236      C1726   1.281   1_545  A
O1237      C1246   1.278       .  A
O1238     Ni1242   1.920       .  S
O1238      C1245   1.280       .  A
O1239     Ni1482   1.928   1_545  S
O1240     Ni1242   1.932       .  S
O1240      C1243   1.283       .  A
Ni1241     O1473   1.936   1_545  S
Ni1241    Ni1722   2.388   1_545  S
Ni1242     O1479   1.927       .  S
Ni1242    Ni1721   2.388       .  S
C1243      C1317   1.502       .  S
C1244      C1429   1.493       .  S
C1245      O1715   1.279       .  A
C1246      O1716   1.281       .  A
C1247      N1248   1.362       .  A
C1247      N1252   1.359       .  A
C1247      C1282   1.489       .  S
N1248      C1249   1.363       .  A
C1249      N1250   1.360       .  A
C1249      C1298   1.486       .  S
N1250      C1251   1.361       .  A
C1251      N1252   1.357       .  A
C1251      C1349   1.491       .  S
O1253     Ni1261   1.927       .  S
O1253      C1263   1.283       .  A
O1254     Ni1261   1.926       .  S
O1255     Ni1261   1.917       .  S
O1255      C1265   1.280       .  A
O1256     Ni1261   1.917       .  S
O1256      C1266   1.279       .  A
O1257     Ni1262   1.918       .  S
O1258     Ni1262   1.919       .  S
O1259     Ni1262   1.924       .  S
O1259      C1264   1.281       .  A
O1260     Ni1262   1.923       .  S
C1263      C1285   1.488       .  S
C1264      C1378   1.491       .  S
C1265      C1277   1.459       .  S
C1266      C1278   1.459       .  S
O1267      C1277   1.279       .  A
O1268     Ni1275   1.921       .  S
O1268      C1278   1.280       .  A
O1270     Ni1275   1.928       .  S
O1270      C1280   1.284       .  A
O1272     Ni1276   1.923       .  S
O1272      C1279   1.282       .  A
O1273     Ni1276   1.915       .  S
C1279      C1413   1.492       .  S
C1280      C1333   1.493       .  S
C1281      C1282   1.405       .  A
C1281      C1286   1.409       .  A
C1281      H1288   1.083       .  S
C1282      C1283   1.419       .  A
C1283      C1284   1.412       .  A
C1283      C1290   1.518       .  S
C1284      C1285   1.405       .  A
C1285      C1286   1.419       .  A
C1286      C1287   1.519       .  S
C1287      F1291   1.385       .  S
C1287      F1292   1.382       .  S
C1287      F1293   1.383       .  S
C1290      F1295   1.382       .  S
C1297      C1298   1.403       .  A
C1297      C1302   1.411       .  A
C1297      H1304   1.083       .  S
C1298      C1299   1.418       .  A
C1299      C1300   1.411       .  A
C1299      C1786   1.517       .  S
C1300      C1301   1.403       .  A
C1300      H1785   1.083       .  S
C1301      C1302   1.419       .  A
C1302      C1303   1.518       .  S
C1303      F1307   1.385       .  S
C1303      F1308   1.382       .  S
C1303      F1309   1.382       .  S
H1305      C1780   1.083       .  S
C1306      C1779   1.517       .  S
C1306      F1310   1.384       .  S
C1306      F1311   1.381       .  S
C1306      F1312   1.385       .  S
C1313      C1314   1.406   1_554  A
C1313      C1318   1.414       .  A
C1313      H1320   1.083       .  S
C1315      C1316   1.417       .  A
C1315      C1322   1.520       .  S
C1316      H1321   1.083       .  S
C1317      C1318   1.422   1_556  A
C1318      C1319   1.519       .  S
C1319      F1323   1.385       .  S
C1319      F1325   1.382       .  S
C1322      F1326   1.383       .  S
C1322      F1328   1.385       .  S
C1329      C1330   1.405   1_554  A
C1329      C1334   1.413       .  A
C1329      H1336   1.083       .  S
C1331      C1332   1.412       .  A
C1331      C1338   1.521       .  S
C1332      C1333   1.404       .  A
C1332      H1337   1.083       .  S
C1334      C1335   1.518       .  S
C1335      F1339   1.385       .  S
C1335      F1341   1.382       .  S
C1338      F1342   1.381       .  S
C1338      F1344   1.385       .  S
C1345      C1826   1.404       .  A
C1345      C1350   1.410   1_665  A
C1345      H1352   1.081       .  S
C1346      C1825   1.404       .  A
C1347      C1348   1.409       .  A
C1347      C1354   1.520       .  S
C1348      C1829   1.405       .  A
C1348      H1353   1.079       .  S
C1349      C1828   1.405   1_545  A
C1350      C1351   1.520   1_455  S
C1351      F1355   1.385       .  S
C1351      F1356   1.382       .  S
C1354      F1358   1.384       .  S
C1354      F1359   1.382       .  S
C1354      F1360   1.385       .  S
C1361      C1362   1.406       .  A
C1361      C1366   1.411       .  A
C1361      H1368   1.083       .  S
C1362      C1363   1.421       .  A
C1363      C1364   1.414       .  A
C1363      C1370   1.518       .  S
C1364      C1365   1.407       .  A
C1364      H1369   1.083       .  S
C1365      C1366   1.424       .  A
C1366      C1847   1.522       .  S
C1367      C1846   1.522   1_545  S
C1367      F1371   1.385       .  S
C1367      F1372   1.383       .  S
C1367      F1373   1.383       .  S
C1370      F1374   1.382       .  S
C1370      F1375   1.384       .  S
C1370      F1376   1.385       .  S
C1377      C1378   1.403       .  A
C1377      C1382   1.409       .  A
C1378      C1379   1.421       .  A
C1379      C1380   1.412       .  A
C1379      C1386   1.519       .  S
C1380      C1381   1.405       .  A
C1380      H1385   1.083       .  S
C1381      C1382   1.422       .  A
C1383      F1387   1.385       .  S
C1383      F1388   1.383       .  S
C1383      F1389   1.382       .  S
C1386      F1390   1.382       .  S
C1386      F1391   1.383       .  S
C1386      F1392   1.385       .  S
C1393      C1398   1.408       .  A
C1393      H1400   1.083       .  S
C1394      C1395   1.421       .  A
C1395      C1396   1.413       .  A
C1395      C1402   1.520       .  S
C1396      C1397   1.407       .  A
C1396      H1401   1.082       .  S
C1398      C1399   1.521       .  S
C1399      F1403   1.385       .  S
C1399      F1405   1.383       .  S
C1402      F1406   1.384       .  S
C1402      F1408   1.385       .  S
C1409      C1410   1.407       .  A
C1409      C1414   1.410       .  A
C1409      H1416   1.083       .  S
C1411      C1412   1.410       .  A
C1411      C1418   1.519       .  S
C1412      H1417   1.083       .  S
C1413      C1414   1.420       .  A
C1414      C1415   1.520       .  S
C1415      F1419   1.385       .  S
C1415      F1421   1.384       .  S
C1418      F1422   1.383       .  S
C1418      F1424   1.385       .  S
C1425      C1426   1.407       .  A
C1425      C1430   1.410       .  A
C1425      H1432   1.083       .  S
C1427      C1428   1.412       .  A
C1427      C1434   1.519       .  S
C1428      H1433   1.084       .  S
C1429      C1430   1.419       .  A
C1430      C1431   1.519       .  S
C1431      F1435   1.385       .  S
C1431      F1436   1.382       .  S
C1434      F1439   1.380       .  S
C1434      F1440   1.384       .  S
C1441      N1442   1.363       .  A
C1441      N1446   1.361   1_554  A
C1441      C1650   1.492       .  S
N1442      C1683   1.363   1_554  A
C1443      N1682   1.362       .  A
C1443      N1444   1.362       .  A
C1443      C1666   1.495       .  S
N1444      C1445   1.362       .  A
C1445      N1686   1.358       .  A
C1445      C1634   1.495       .  S
N1446      C1685   1.359       .  A
C1447      N1448   1.363       .  A
C1447      N1452   1.363       .  A
C1447      C1602   1.494       .  S
N1448      C1449   1.363       .  A
C1449      N1450   1.357       .  A
C1449      C1621   1.489       .  S
N1450      C1451   1.355       .  A
C1451      N1452   1.359       .  A
C1451      C1586   1.483       .  S
C1453      N1454   1.365       .  A
C1453      N1458   1.365       .  A
C1453      C1554   1.504       .  S
N1454      C1455   1.364       .  A
C1455      N1456   1.357       .  A
C1455      C1570   1.494       .  S
N1456      C1457   1.358       .  A
C1457      N1458   1.363       .  A
C1457      C1637   1.497       .  S
O1459     Ni1467   1.918       .  S
O1460     Ni1467   1.921       .  S
O1461     Ni1467   1.916       .  S
O1461      C1471   1.279       .  A
O1462     Ni1467   1.915       .  S
O1463     Ni1468   1.934       .  S
O1463      C1472   1.285       .  A
O1464     Ni1468   1.932       .  S
O1465     Ni1468   1.914       .  S
O1465      C1470   1.278       .  A
O1466     Ni1468   1.912       .  S
O1466      C1469   1.278       .  A
C1469      C1485   1.456       .  S
C1470      C1486   1.459       .  S
C1471      C1541   1.500       .  S
C1472      C1605   1.492       .  S
O1473      C1723   1.285       .  A
O1474     Ni1481   1.927       .  S
O1474      C1484   1.282       .  A
O1475     Ni1481   1.917       .  S
O1476     Ni1721   1.918   1_554  S
O1477     Ni1722   1.917   1_554  S
O1477      C1486   1.280       .  A
O1478     Ni1482   1.914       .  S
O1478      C1485   1.279       .  A
O1479      C1724   1.283       .  A
O1480     Ni1482   1.931       .  S
O1480      C1483   1.284       .  A
Ni1481     O1716   1.922       .  S
Ni1482     O1717   1.914       .  S
C1483      C1557   1.501       .  S
C1483      O1713   1.284       .  A
C1484      C1669   1.491       .  S
C1484      O1719   1.283       .  A
C1487      N1488   1.362       .  A
C1487      N1492   1.361       .  A
C1487      C1522   1.492       .  S
N1488      C1489   1.365       .  A
C1489      N1490   1.359       .  A
C1489      C1538   1.499       .  S
N1490      C1491   1.358       .  A
C1491      N1492   1.358       .  A
C1491      C1589   1.486       .  S
O1493     Ni1501   1.929       .  S
O1493      C1503   1.284       .  A
O1494     Ni1501   1.929       .  S
O1495     Ni1501   1.912       .  S
O1495      C1505   1.278       .  A
O1496     Ni1501   1.912       .  S
O1496      C1506   1.278       .  A
O1497     Ni1502   1.920       .  S
O1498     Ni1502   1.922       .  S
O1499     Ni1502   1.919       .  S
O1499      C1504   1.280       .  A
O1500     Ni1502   1.917       .  S
C1503      C1525   1.489       .  S
C1504      C1618   1.488       .  S
C1505      C1517   1.458       .  S
C1506      C1518   1.458       .  S
O1507     Ni1755   1.916       .  S
O1507      C1517   1.280       .  A
O1508     Ni1515   1.918       .  S
O1508      C1518   1.280       .  A
O1509      C1759   1.283       .  A
O1510     Ni1515   1.927       .  S
O1510      C1520   1.283       .  A
O1511      C1760   1.282       .  A
O1512     Ni1516   1.925       .  S
O1512      C1519   1.282       .  A
O1513     Ni1516   1.915       .  S
O1514     Ni1756   1.917       .  S
Ni1515     O1747   1.914   1_554  S
Ni1516     O1754   1.920   1_554  S
C1519      C1653   1.490       .  S
C1519      O1749   1.283       .  A
C1520      C1573   1.487       .  S
C1520      O1751   1.282       .  A
C1521      C1522   1.404       .  A
C1521      C1526   1.408       .  A
C1521      H1528   1.082       .  S
C1522      C1523   1.421       .  A
C1523      C1524   1.411       .  A
C1523      C1530   1.517       .  S
C1524      C1525   1.404       .  A
C1525      C1526   1.420       .  A
C1526      C1527   1.520       .  S
C1527      F1531   1.385       .  S
C1527      F1532   1.382       .  S
C1527      F1533   1.383       .  S
C1530      F1535   1.381       .  S
C1537      C1538   1.405       .  A
C1537      C1542   1.411       .  A
C1537      H1544   1.079       .  S
C1538      C1539   1.424       .  A
C1539      C1540   1.410       .  A
C1540      C1541   1.406       .  A
C1541      C1542   1.425       .  A
C1542      C1543   1.522       .  S
C1543      F1547   1.385       .  S
C1543      F1548   1.383       .  S
C1543      F1549   1.384       .  S
C1546      F1550   1.383       .  S
C1546      F1551   1.384   1_565  S
C1546      F1552   1.385       .  S
C1553      C1554   1.407       .  A
C1553      C1558   1.413       .  A
C1553      H1560   1.083       .  S
C1554      C1795   1.424       .  A
C1555      C1794   1.423       .  A
C1555      C1556   1.416       .  A
C1555      C1562   1.520       .  S
C1556      C1797   1.407       .  A
C1556      H1561   1.083       .  S
C1557      C1796   1.407       .  A
C1557      C1558   1.421       .  A
C1558      C1559   1.519       .  S
C1559      F1563   1.385       .  S
C1559      F1804   1.384       .  S
C1559      F1565   1.382       .  S
C1562      F1566   1.382       .  S
C1562      F1807   1.384       .  S
C1562      F1568   1.385       .  S
F1564      C1799   1.384       .  S
F1567      C1802   1.384       .  S
C1569      C1570   1.406       .  A
C1569      C1574   1.413       .  A
C1569      H1576   1.083       .  S
C1570      C1811   1.422       .  A
C1571      C1810   1.420       .  A
C1571      C1572   1.410       .  A
C1571      C1578   1.519       .  S
C1572      C1573   1.403   1_556  A
C1572      H1577   1.083       .  S
C1573      C1814   1.418       .  A
C1574      C1813   1.420       .  A
C1574      C1575   1.518       .  S
C1575      F1579   1.384       .  S
C1575      F1820   1.384       .  S
C1575      F1581   1.382       .  S
C1578      F1582   1.381       .  S
C1578      F1823   1.383       .  S
C1578      F1584   1.385       .  S
F1580      C1815   1.383       .  S
F1583      C1818   1.383       .  S
C1585      C1590   1.410   1_655  A
C1585      H1592   1.082       .  S
C1587      C1588   1.410       .  A
C1587      C1594   1.519       .  S
C1588      H1593   1.082       .  S
C1590      C1591   1.518   1_455  S
C1591      F1595   1.385       .  S
C1591      F1596   1.381       .  S
C1594      F1598   1.383       .  S
C1594      F1599   1.382       .  S
C1594      F1600   1.385       .  S
C1601      C1602   1.405       .  A
C1601      C1606   1.408       .  A
C1601      H1608   1.083       .  S
C1602      C1603   1.422       .  A
C1603      C1604   1.414       .  A
C1603      C1610   1.519       .  S
C1604      C1605   1.405       .  A
C1604      H1609   1.083       .  S
C1605      C1606   1.422       .  A
C1607      F1611   1.385       .  S
C1607      F1612   1.383       .  S
C1607      F1613   1.382       .  S
C1610      F1614   1.382       .  S
C1610      F1615   1.383       .  S
C1610      F1616   1.385       .  S
C1617      C1618   1.402       .  A
C1617      C1622   1.409       .  A
C1618      C1619   1.421       .  A
C1619      C1620   1.411       .  A
C1619      C1626   1.520       .  S
C1620      C1621   1.404       .  A
C1620      H1625   1.083       .  S
C1621      C1622   1.422       .  A
C1623      F1627   1.385       .  S
C1623      F1628   1.384       .  S
C1623      F1629   1.382       .  S
C1626      F1630   1.382       .  S
C1626      F1631   1.382       .  S
C1626      F1632   1.385       .  S
C1633      C1874   1.403   1_554  A
C1633      C1638   1.409       .  A
C1633      H1640   1.082       .  S
C1634      C1873   1.403       .  A
C1634      C1635   1.423       .  A
C1635      C1636   1.415       .  A
C1635      C1642   1.520       .  S
C1636      C1637   1.407       .  A
C1636      H1641   1.083       .  S
C1637      C1878   1.423       .  A
C1638      C1877   1.426   1_554  A
C1638      C1639   1.522       .  S
C1639      F1643   1.385       .  S
C1639      F1884   1.382       .  S
C1639      F1645   1.383       .  S
C1642      F1646   1.383       .  S
C1642      F1887   1.383       .  S
C1642      F1648   1.385       .  S
F1644      C1879   1.381       .  S
F1647      C1882   1.382       .  S
C1649      C1650   1.407       .  A
C1649      C1654   1.412       .  A
C1649      H1656   1.083       .  S
C1650      C1891   1.419   1_554  A
C1651      C1890   1.421       .  A
C1651      C1652   1.411       .  A
C1651      C1658   1.520       .  S
C1652      C1893   1.406       .  A
C1652      H1657   1.083       .  S
C1653      C1892   1.404   1_554  A
C1653      C1654   1.420       .  A
C1654      C1655   1.520       .  S
C1655      F1659   1.385       .  S
C1655      F1900   1.382       .  S
C1655      F1661   1.384       .  S
C1658      F1662   1.383       .  S
C1658      F1903   1.381       .  S
C1658      F1664   1.385       .  S
F1660      C1895   1.382       .  S
F1663      C1898   1.381       .  S
C1665      C1666   1.406       .  A
C1665      C1670   1.412       .  A
C1665      H1672   1.083       .  S
C1666      C1907   1.422       .  A
C1667      C1906   1.423   1_554  A
C1667      C1668   1.414       .  A
C1667      C1674   1.519       .  S
C1668      C1909   1.406   1_554  A
C1668      H1673   1.083       .  S
C1669      C1908   1.403       .  A
C1669      C1670   1.419       .  A
C1670      C1671   1.519       .  S
C1671      F1675   1.385       .  S
C1671      F1676   1.382       .  S
C1671      F1917   1.382       .  S
C1674      F1918   1.383       .  S
C1674      F1679   1.381       .  S
C1674      F1680   1.385       .  S
F1677      C1911   1.383       .  S
F1678      C1914   1.384       .  S
C1681      N1682   1.362       .  A
C1681      N1686   1.361       .  A
C1681      C1890   1.493       .  S
C1683      N1684   1.362       .  A
C1683      C1906   1.498       .  S
N1684      C1685   1.361       .  A
C1685      C1874   1.494       .  S
C1687      N1688   1.365       .  A
C1687      N1692   1.362       .  A
C1687      C1842   1.499       .  S
N1688      C1689   1.364       .  A
C1689      N1690   1.357       .  A
C1689      C1861   1.492       .  S
N1690      C1691   1.356       .  A
C1691      N1692   1.359       .  A
C1691      C1826   1.486       .  S
C1693      N1694   1.364       .  A
C1693      N1698   1.366       .  A
C1693      C1794   1.502       .  S
N1694      C1695   1.363       .  A
C1695      N1696   1.356       .  A
C1695      C1810   1.489       .  S
N1696      C1697   1.357       .  A
C1697      N1698   1.365       .  A
C1697      C1877   1.499       .  S
O1699     Ni1707   1.922       .  S
O1700     Ni1707   1.925       .  S
O1701     Ni1707   1.917       .  S
O1701      C1711   1.279       .  A
O1702     Ni1707   1.919       .  S
O1703     Ni1708   1.935       .  S
O1703      C1712   1.286       .  A
O1704     Ni1708   1.934       .  S
O1705     Ni1708   1.911       .  S
O1705      C1710   1.278       .  A
O1706     Ni1708   1.913       .  S
O1706      C1709   1.278       .  A
C1709      C1725   1.459       .  S
C1710      C1726   1.459       .  S
C1711      C1781   1.486       .  S
C1712      C1845   1.499       .  S
O1714     Ni1721   1.929       .  S
O1714      C1724   1.283       .  A
O1715     Ni1721   1.914       .  S
O1717      C1726   1.278       .  A
O1718     Ni1722   1.920       .  S
O1718      C1725   1.280       .  A
O1720     Ni1722   1.932       .  S
O1720      C1723   1.283       .  A
C1723      C1797   1.502       .  S
C1724      C1909   1.493       .  S
C1727      N1728   1.362       .  A
C1727      N1732   1.359       .  A
C1727      C1762   1.489       .  S
N1728      C1729   1.363       .  A
C1729      N1730   1.360       .  A
C1729      C1778   1.486       .  S
N1730      C1731   1.361       .  A
C1731      N1732   1.357       .  A
C1731      C1829   1.491       .  S
O1733     Ni1741   1.927       .  S
O1733      C1743   1.283       .  A
O1734     Ni1741   1.927       .  S
O1735     Ni1741   1.917       .  S
O1735      C1745   1.280       .  A
O1736     Ni1741   1.917       .  S
O1736      C1746   1.279       .  A
O1737     Ni1742   1.918       .  S
O1738     Ni1742   1.919       .  S
O1739     Ni1742   1.924       .  S
O1739      C1744   1.281       .  A
O1740     Ni1742   1.923       .  S
C1743      C1765   1.488       .  S
C1744      C1858   1.491       .  S
C1745      C1757   1.459       .  S
C1746      C1758   1.459       .  S
O1747      C1757   1.279       .  A
O1748     Ni1755   1.921       .  S
O1748      C1758   1.280       .  A
O1750     Ni1755   1.928       .  S
O1750      C1760   1.284       .  A
O1752     Ni1756   1.923       .  S
O1752      C1759   1.282       .  A
O1753     Ni1756   1.915       .  S
C1759      C1893   1.492       .  S
C1760      C1813   1.493       .  S
C1761      C1762   1.405       .  A
C1761      C1766   1.409       .  A
C1761      H1768   1.083       .  S
C1762      C1763   1.419       .  A
C1763      C1764   1.412       .  A
C1763      C1770   1.518       .  S
C1764      C1765   1.405       .  A
C1765      C1766   1.419       .  A
C1766      C1767   1.519       .  S
C1767      F1771   1.385       .  S
C1767      F1772   1.382       .  S
C1767      F1773   1.383       .  S
C1770      F1775   1.382       .  S
C1777      C1778   1.403       .  A
C1777      C1782   1.411       .  A
C1777      H1784   1.083       .  S
C1778      C1779   1.418       .  A
C1779      C1780   1.411       .  A
C1780      C1781   1.403       .  A
C1781      C1782   1.419       .  A
C1782      C1783   1.518       .  S
C1783      F1787   1.385       .  S
C1783      F1788   1.382       .  S
C1783      F1789   1.382       .  S
C1786      F1790   1.384       .  S
C1786      F1791   1.381       .  S
C1786      F1792   1.385       .  S
C1793      C1794   1.406   1_554  A
C1793      C1798   1.414       .  A
C1793      H1800   1.083       .  S
C1795      C1796   1.417       .  A
C1795      C1802   1.520       .  S
C1796      H1801   1.083       .  S
C1797      C1798   1.422   1_556  A
C1798      C1799   1.519       .  S
C1799      F1803   1.385       .  S
C1799      F1805   1.382       .  S
C1802      F1806   1.383       .  S
C1802      F1808   1.385       .  S
C1809      C1810   1.405   1_554  A
C1809      C1814   1.413       .  A
C1809      H1816   1.083       .  S
C1811      C1812   1.412       .  A
C1811      C1818   1.521       .  S
C1812      C1813   1.404       .  A
C1812      H1817   1.083       .  S
C1814      C1815   1.518       .  S
C1815      F1819   1.385       .  S
C1815      F1821   1.382       .  S
C1818      F1822   1.381       .  S
C1818      F1824   1.385       .  S
C1825      C1830   1.410   1_655  A
C1825      H1832   1.081       .  S
C1827      C1828   1.409       .  A
C1827      C1834   1.520       .  S
C1828      H1833   1.079       .  S
C1830      C1831   1.520   1_455  S
C1831      F1835   1.385       .  S
C1831      F1836   1.382       .  S
C1834      F1838   1.384       .  S
C1834      F1839   1.382       .  S
C1834      F1840   1.385       .  S
C1841      C1842   1.406       .  A
C1841      C1846   1.411       .  A
C1841      H1848   1.083       .  S
C1842      C1843   1.421       .  A
C1843      C1844   1.414       .  A
C1843      C1850   1.518       .  S
C1844      C1845   1.407       .  A
C1844      H1849   1.083       .  S
C1845      C1846   1.424       .  A
C1847      F1851   1.385       .  S
C1847      F1852   1.383       .  S
C1847      F1853   1.383       .  S
C1850      F1854   1.382       .  S
C1850      F1855   1.384       .  S
C1850      F1856   1.385       .  S
C1857      C1858   1.403       .  A
C1857      C1862   1.409       .  A
C1858      C1859   1.421       .  A
C1859      C1860   1.412       .  A
C1859      C1866   1.519       .  S
C1860      C1861   1.405       .  A
C1860      H1865   1.083       .  S
C1861      C1862   1.422       .  A
C1863      F1867   1.385       .  S
C1863      F1868   1.383       .  S
C1863      F1869   1.382       .  S
C1866      F1870   1.382       .  S
C1866      F1871   1.383       .  S
C1866      F1872   1.385       .  S
C1873      C1878   1.408       .  A
C1873      H1880   1.083       .  S
C1874      C1875   1.421       .  A
C1875      C1876   1.413       .  A
C1875      C1882   1.520       .  S
C1876      C1877   1.407       .  A
C1876      H1881   1.082       .  S
C1878      C1879   1.521       .  S
C1879      F1883   1.385       .  S
C1879      F1885   1.383       .  S
C1882      F1886   1.384       .  S
C1882      F1888   1.385       .  S
C1889      C1890   1.407       .  A
C1889      C1894   1.410       .  A
C1889      H1896   1.083       .  S
C1891      C1892   1.410       .  A
C1891      C1898   1.519       .  S
C1892      H1897   1.083       .  S
C1893      C1894   1.420       .  A
C1894      C1895   1.520       .  S
C1895      F1899   1.385       .  S
C1895      F1901   1.384       .  S
C1898      F1902   1.383       .  S
C1898      F1904   1.385       .  S
C1905      C1906   1.407       .  A
C1905      C1910   1.410       .  A
C1905      H1912   1.083       .  S
C1907      C1908   1.412       .  A
C1907      C1914   1.519       .  S
C1908      H1913   1.084       .  S
C1909      C1910   1.419       .  A
C1910      C1911   1.519       .  S
C1911      F1915   1.385       .  S
C1911      F1916   1.382       .  S
C1914      F1919   1.380       .  S
C1914      F1920   1.384       .  S
