geometry optimzed in LAMMPS
_audit_creation_date              2020-12-01 
_audit_creation_method            'lammps2cif' 
_symmetry_space_group_name_H-M    'P1' 
_symmetry_Int_Tables_number       1 
_symmetry_cell_setting            triclinic 
loop_ 
_symmetry_equiv_pos_as_xyz 
  x,y,z 
_cell_length_a                    43.61954837 
_cell_length_b                    43.59539649923361 
_cell_length_c                    43.04517427467761 
_cell_angle_alpha                 89.98605633982199 
_cell_angle_beta                  89.98753199892562 
_cell_angle_gamma                 90.02089579608689 
loop_ 
_atom_site_label 
_atom_site_type_symbol 
_atom_site_fract_x 
_atom_site_fract_y 
_atom_site_fract_z 
_atom_site_charge 
C1          C  0.29732544  0.34924029  0.30810640     0.88200
C2          C  0.28871772  0.33938151  0.34108334    -0.52100
C3          C  0.25795446  0.33936947  0.34683742     0.11100
C4          C  0.23827052  0.34895609  0.31838675     0.22000
C5          C  0.27968266  0.32755446  0.28674380    -0.52800
C6          C  0.24867558  0.32683670  0.29179542     0.11200
C7          C  0.28225493  0.38064173  0.30382492    -0.52300
C8          C  0.25149190  0.38094379  0.30952052     0.11800
H9          H  0.30562020  0.33361537  0.35869442     0.16300
H10         H  0.21322648  0.34883295  0.32303985     0.02000
H11         H  0.29096756  0.31298944  0.26974843     0.16600
H12         H  0.29521607  0.40133499  0.29869062     0.16400
C13         C  0.28002131  0.75122510  0.32114693     0.88200
C14         C  0.27902229  0.76642291  0.35329119    -0.52100
C15         C  0.28921576  0.79604495  0.35361746     0.11100
C16         C  0.29917403  0.80813425  0.32125912     0.22000
C17         C  0.26139698  0.77250359  0.30005715    -0.52800
C18         C  0.27102888  0.80247161  0.29978132     0.11200
C19         C  0.31330714  0.75491056  0.31040344    -0.52300
C20         C  0.32356899  0.78456012  0.31069621     0.11800
H21         H  0.27208704  0.75434445  0.37423582     0.16300
H22         H  0.30742297  0.83224154  0.32154953     0.02000
H23         H  0.24146657  0.76468748  0.28714698     0.16600
H24         H  0.32786796  0.73562798  0.30424038     0.16400
N25         N  0.19702632  0.50646098  0.35066429    -0.25600
N26         N  0.21749172  0.51834653  0.33133414    -0.33500
C27         C  0.23076411  0.49496812  0.31555685     0.02700
C28         C  0.21783853  0.46743284  0.32543980     0.08800
C29         C  0.19671318  0.47571206  0.34771972    -0.04300
H30         H  0.24900572  0.49770220  0.29874695     0.09400
H31         H  0.18277521  0.46042142  0.36160565     0.10600
Cu32       Cu  0.22673701  0.56631722  0.32885346     0.44200
Cu33       Cu  0.17174972  0.53136642  0.38266832     0.42000
Cu34       Cu  0.17682338  0.61242796  0.37879048     0.43900
N35         N  0.22899998  0.61505331  0.33233815    -0.33000
N36         N  0.20972740  0.63103892  0.34977522    -0.27300
C37         C  0.21698401  0.66099099  0.34843770    -0.03400
C38         C  0.24207236  0.66452633  0.32935314     0.08900
C39         C  0.24924214  0.63496216  0.31944972     0.02700
H40         H  0.20543663  0.67882127  0.36142489     0.10300
H41         H  0.26814995  0.62837882  0.30461373     0.09400
N42         N  0.15424750  0.58998596  0.41437781    -0.34400
N43         N  0.15274008  0.55977023  0.41606300    -0.26600
C44         C  0.14189148  0.55174673  0.44416890    -0.01900
C45         C  0.13628609  0.57822960  0.46081381     0.06700
C46         C  0.14441653  0.60206461  0.44136069     0.04800
H47         H  0.14069274  0.52844527  0.45273459     0.09900
H48         H  0.14572631  0.62613897  0.44731008     0.08800
C49         C  0.70328071  0.79097487  0.30987436     0.88200
C50         C  0.71205508  0.80081645  0.34278916    -0.52100
C51         C  0.74282610  0.80061580  0.34845099     0.11100
C52         C  0.76237384  0.79086882  0.31993204     0.22000
C53         C  0.72100026  0.81249319  0.28839701    -0.52800
C54         C  0.75203318  0.81302049  0.29331563     0.11200
C55         C  0.71811931  0.75946419  0.30559220    -0.52300
C56         C  0.74890256  0.75895559  0.31115727     0.11800
H57         H  0.69523718  0.80669373  0.36045345     0.16300
H58         H  0.78743130  0.79082364  0.32449733     0.02000
H59         H  0.70974771  0.82708158  0.27139811     0.16600
H60         H  0.70500279  0.73886165  0.30050727     0.16400
N61         N  0.57350711  0.75032364  0.27459490    -0.25600
N62         N  0.56086031  0.77439598  0.28835425    -0.33500
C63         C  0.58374749  0.79204687  0.29992518     0.02700
C64         C  0.61158634  0.77812676  0.29287818     0.08800
C65         C  0.60411694  0.75189992  0.27698037    -0.04300
H66         H  0.58040273  0.81331295  0.31242457     0.09400
H67         H  0.61983172  0.73508864  0.26758360     0.10600
Cu68       Cu  0.51267336  0.78129371  0.28991208     0.44200
Cu69       Cu  0.55086213  0.71584892  0.25141271     0.42000
Cu70       Cu  0.47284789  0.72565731  0.24009054     0.43900
N71         N  0.46430035  0.77899379  0.28464652    -0.33000
N72         N  0.45104933  0.75899555  0.26575855    -0.27300
C73         C  0.42048722  0.76172063  0.26758868    -0.03400
C74         C  0.41361257  0.78447463  0.28849965     0.08900
C75         C  0.44184758  0.79503635  0.29917321     0.02700
H76         H  0.40435999  0.74720876  0.25537854     0.10300
H77         H  0.44572937  0.81235837  0.31673400     0.09400
N78         N  0.49606840  0.68921551  0.22088168    -0.34400
N79         N  0.52564835  0.68517831  0.22564965    -0.26600
C80         C  0.53423592  0.65815161  0.21344136    -0.01900
C81         C  0.50868371  0.64478533  0.20025460     0.06700
C82         C  0.48480661  0.66485930  0.20554092     0.04800
H83         H  0.55684345  0.64820528  0.21572457     0.09900
H84         H  0.46078275  0.66114726  0.20054611     0.08800
N85         N  0.80270401  0.63293239  0.35164697    -0.25600
N86         N  0.78213989  0.62122435  0.33232341    -0.33500
C87         C  0.76898080  0.64474010  0.31664307     0.02700
C88         C  0.78208348  0.67217176  0.32658030     0.08800
C89         C  0.80319455  0.66368804  0.34878673    -0.04300
H90         H  0.75068975  0.64217242  0.29987182     0.09400
H91         H  0.81723435  0.67884906  0.36269726     0.10600
Cu92       Cu  0.77258565  0.57329493  0.32971589     0.44200
Cu93       Cu  0.82788381  0.60785432  0.38360026     0.42000
Cu94       Cu  0.82207555  0.52693887  0.37982165     0.43900
N95         N  0.77011585  0.52453817  0.33313286    -0.33000
N96         N  0.78922728  0.50849275  0.35069380    -0.27300
C97         C  0.78198066  0.47855022  0.34923453    -0.03400
C98         C  0.75707048  0.47506439  0.32992895     0.08900
C99         C  0.74998404  0.50465995  0.32002516     0.02700
H100        H  0.79346162  0.46067619  0.36222552     0.10300
H101        H  0.73124383  0.51127381  0.30499080     0.09400
N102        N  0.84503975  0.54913104  0.41526587    -0.34400
N103        N  0.84684498  0.57932807  0.41692882    -0.26600
C104        C  0.85803204  0.58723503  0.44492585    -0.01900
C105        C  0.86355109  0.56068520  0.46150913     0.06700
C106        C  0.85500810  0.53694134  0.44214346     0.04800
H107        H  0.85956341  0.61052144  0.45346859     0.09900
H108        H  0.85356097  0.51287196  0.44808989     0.08800
C109        C  0.71985164  0.38814782  0.32109302     0.88200
C110        C  0.72089556  0.37284694  0.35318747    -0.52100
C111        C  0.71094833  0.34314253  0.35340116     0.11100
C112        C  0.70115940  0.33108364  0.32098590     0.22000
C113        C  0.73870619  0.36709440  0.29998104    -0.52800
C114        C  0.72932092  0.33704557  0.29959850     0.11200
C115        C  0.68663376  0.38423157  0.31026196    -0.52300
C116        C  0.67660942  0.35450452  0.31042921     0.11800
H117        H  0.72769218  0.38490406  0.37418150     0.16300
H118        H  0.69310211  0.30691009  0.32118299     0.02000
H119        H  0.75859896  0.37512336  0.28713147     0.16600
H120        H  0.67194266  0.40341722  0.30410309     0.16400
N121        N  0.42725768  0.39017583  0.27282810    -0.25600
N122        N  0.43974203  0.36596715  0.28650461    -0.33500
C123        C  0.41675171  0.34836564  0.29794152     0.02700
C124        C  0.38899911  0.36244130  0.29091209     0.08800
C125        C  0.39662598  0.38872578  0.27514790    -0.04300
H126        H  0.41997244  0.32702908  0.31035589     0.09400
H127        H  0.38100822  0.40566634  0.26582030     0.10600
Cu128      Cu  0.48785162  0.35874077  0.28824497     0.44200
Cu129      Cu  0.45024067  0.42469453  0.24994786     0.42000
Cu130      Cu  0.52842232  0.41437681  0.23920941     0.43900
N131        N  0.53625749  0.36060889  0.28333781    -0.33000
N132        N  0.54981032  0.38063284  0.26468947    -0.27300
C133        C  0.58033350  0.37764085  0.26672373    -0.03400
C134        C  0.58685916  0.35467757  0.28752749     0.08900
C135        C  0.55845988  0.34427660  0.29792203     0.02700
H136        H  0.59667205  0.39213299  0.25476780     0.10300
H137        H  0.55429898  0.32688872  0.31535962     0.09400
N138        N  0.50561917  0.45119594  0.22022388    -0.34400
N139        N  0.47602269  0.45542489  0.22475048    -0.26600
C140        C  0.46778364  0.48264294  0.21271517    -0.01900
C141        C  0.49357517  0.49592454  0.19990110     0.06700
C142        C  0.51723031  0.47560554  0.20522363     0.04800
H143        H  0.44522848  0.49274276  0.21484052     0.09900
H144        H  0.54132861  0.47914933  0.20045772     0.08800
C145        C  0.71968866  0.38769072  0.75536060     0.88200
C146        C  0.68643820  0.38383228  0.76612596    -0.52100
C147        C  0.67631242  0.35414106  0.76582595     0.11100
C148        C  0.70082578  0.33068290  0.75523846     0.22000
C149        C  0.73845167  0.36649724  0.77642602    -0.52800
C150        C  0.72898270  0.33647130  0.77668704     0.11200
C151        C  0.72074216  0.37251114  0.72321643    -0.52300
C152        C  0.71070527  0.34284160  0.72288082     0.11800
H153        H  0.67177953  0.40304691  0.77227463     0.16300
H154        H  0.69269496  0.30653592  0.75493443     0.02000
H155        H  0.75837908  0.37440205  0.78928414     0.16600
H156        H  0.72759257  0.38463603  0.70227091     0.16400
N157        N  0.66277753  0.28276135  0.60146846    -0.25600
N158        N  0.68557624  0.29705575  0.58716163    -0.33500
C159        C  0.70342141  0.31044799  0.60902820     0.02700
C160        C  0.69117921  0.30406344  0.63815607     0.08800
C161        C  0.66546939  0.28660682  0.63236644    -0.04300
H162        H  0.72326989  0.32451765  0.60407681     0.09400
H163        H  0.64921028  0.27816365  0.64932209     0.10600
Cu164      Cu  0.68963041  0.29876722  0.53805326     0.44200
Cu165      Cu  0.62682425  0.26077289  0.57928843     0.42000
Cu166      Cu  0.62733421  0.26009760  0.49660529     0.43900
N167        N  0.68586032  0.29681011  0.48893311    -0.33000
N168        N  0.66329177  0.28223782  0.47455345    -0.27300
C169        C  0.66608628  0.28607770  0.44366017    -0.03400
C170        C  0.69161919  0.30382601  0.43795149     0.08900
C171        C  0.70365018  0.31038050  0.46712076     0.02700
H172        H  0.64996669  0.27748782  0.42665329     0.10300
H173        H  0.72328059  0.32472778  0.47213706     0.09400
N174        N  0.59064532  0.24416330  0.52251510    -0.34400
N175        N  0.59044356  0.24444963  0.55320915    -0.26600
C176        C  0.56241647  0.23628628  0.56331975    -0.01900
C177        C  0.54428654  0.23053374  0.53769638     0.06700
C178        C  0.56275165  0.23580887  0.51220345     0.04800
H179        H  0.55527200  0.23649005  0.58738887     0.09900
H180        H  0.55591884  0.23557269  0.48804364     0.08800
N181        N  0.54931412  0.38095998  0.81060031    -0.25600
N182        N  0.53574749  0.36076952  0.79216493    -0.33500
C183        C  0.55795059  0.34434790  0.77767053     0.02700
C184        C  0.58636128  0.35488321  0.78789944     0.08800
C185        C  0.57983652  0.37800716  0.80850810    -0.04300
H186        H  0.55377986  0.32672412  0.76049016     0.09400
H187        H  0.59617768  0.39252209  0.82042162     0.10600
Cu188      Cu  0.48729458  0.35867476  0.78765959     0.44200
Cu189      Cu  0.52789281  0.41447935  0.83633421     0.42000
Cu190      Cu  0.44924801  0.42330921  0.82805620     0.43900
N191        N  0.43912249  0.36549002  0.78988848    -0.33000
N192        N  0.42647332  0.38914576  0.80438206    -0.27300
C193        C  0.39584443  0.38753662  0.80204766    -0.03400
C194        C  0.38839496  0.36172576  0.78541947     0.08900
C195        C  0.41624973  0.34810747  0.77789839     0.02700
H196        H  0.38011078  0.40409009  0.81187136     0.10300
H197        H  0.41962177  0.32724930  0.76471890     0.09400
N198        N  0.47509566  0.45416096  0.85306517    -0.34400
N199        N  0.50490230  0.45051342  0.85656812    -0.26600
C200        C  0.51646449  0.47494786  0.87154656    -0.01900
C201        C  0.49257596  0.49468944  0.87792609     0.06700
C202        C  0.46667665  0.48103485  0.86575325     0.04800
H203        H  0.54062372  0.47895016  0.87554754     0.09900
H204        H  0.44387863  0.49071275  0.86444099     0.08800
C205        C  0.29686980  0.34841384  0.76733805     0.88200
C206        C  0.28166805  0.37972354  0.77180725    -0.52100
C207        C  0.25093004  0.37997310  0.76599696     0.11100
C208        C  0.23785184  0.34801114  0.75683826     0.22000
C209        C  0.27921644  0.32649586  0.78846548    -0.52800
C210        C  0.24822822  0.32571963  0.78331843     0.11200
C211        C  0.28843009  0.33879424  0.73424968    -0.52300
C212        C  0.25768704  0.33873206  0.72836989     0.11800
H213        H  0.29453768  0.40041934  0.77714554     0.16300
H214        H  0.21282626  0.34784945  0.75209599     0.02000
H215        H  0.29047943  0.31189952  0.80544868     0.16600
H216        H  0.30542856  0.33326692  0.71665154     0.16400
N217        N  0.27565095  0.29191001  0.47479452    -0.25600
N218        N  0.25481696  0.30974083  0.48808890    -0.33500
C219        C  0.23909412  0.32421072  0.46513633     0.02700
C220        C  0.25065342  0.31459469  0.43653770     0.08800
C221        C  0.27368798  0.29433271  0.44378145    -0.04300
H222        H  0.22137209  0.34115403  0.46894767     0.09400
H223        H  0.28908120  0.28317790  0.42761915     0.10600
Cu224      Cu  0.25082026  0.31382445  0.53741331     0.44200
Cu225      Cu  0.30963856  0.26741103  0.49709631     0.42000
Cu226      Cu  0.31017743  0.26844053  0.57748188     0.43900
N227        N  0.25503510  0.31019107  0.58675449    -0.33000
N228        N  0.27622269  0.29274926  0.59998469    -0.27300
C229        C  0.27436401  0.29517924  0.63099944    -0.03400
C230        C  0.25100688  0.31503416  0.63832787     0.08900
C231        C  0.23914788  0.32441186  0.60976060     0.02700
H232        H  0.28993581  0.28420057  0.64710719     0.10300
H233        H  0.22103721  0.34094908  0.60600828     0.09400
N234        N  0.34614311  0.25004586  0.55259206    -0.34400
N235        N  0.34595482  0.24961724  0.52196008    -0.26600
C236        C  0.37346720  0.24008374  0.51166657    -0.01900
C237        C  0.39165592  0.23415343  0.53722973     0.06700
C238        C  0.37376375  0.24079776  0.56281866     0.04800
H239        H  0.38031177  0.23950945  0.48751565     0.09900
H240        H  0.38088027  0.24089164  0.58689465     0.08800
C241        C  0.70279497  0.79002906  0.76842856     0.88200
C242        C  0.71782429  0.75856871  0.77237608    -0.52100
C243        C  0.74855194  0.75824459  0.76649623     0.11100
C244        C  0.76179250  0.79027026  0.75778646     0.22000
C245        C  0.72062023  0.81151572  0.78985396    -0.52800
C246        C  0.75160385  0.81220840  0.78461388     0.11200
C247        C  0.71122928  0.80012295  0.73547782    -0.52300
C248        C  0.74195657  0.80012334  0.72953480     0.11800
H249        H  0.70485523  0.73786895  0.77746244     0.16300
H250        H  0.78680758  0.79037492  0.75297719     0.02000
H251        H  0.70946776  0.82599800  0.80701054     0.16600
H252        H  0.69423486  0.80606875  0.71801983     0.16400
N253        N  0.45028714  0.75785277  0.81150507    -0.25600
N254        N  0.46382499  0.77793377  0.79290302    -0.33500
C255        C  0.44160427  0.79412479  0.77818515     0.02700
C256        C  0.41321284  0.78356744  0.78843552     0.08800
C257        C  0.41975868  0.76066545  0.80929806    -0.04300
H258        H  0.44575554  0.81155220  0.76078509     0.09400
H259        H  0.40343813  0.74613348  0.82123024     0.10600
Cu260      Cu  0.51225075  0.78014580  0.78825234     0.44200
Cu261      Cu  0.47169550  0.72436900  0.83733222     0.42000
Cu262      Cu  0.54998958  0.71470772  0.82720182     0.43900
N263        N  0.56039940  0.77317722  0.79020852    -0.33000
N264        N  0.57292786  0.74912404  0.80412027    -0.27300
C265        C  0.60356123  0.75065395  0.80187289    -0.03400
C266        C  0.61115152  0.77683584  0.78591524     0.08900
C267        C  0.58336680  0.79076100  0.77868869     0.02700
H268        H  0.61920507  0.73382812  0.81136660     0.10300
H269        H  0.58011007  0.81197449  0.76606713     0.09400
N270        N  0.52437294  0.68399137  0.85259034    -0.34400
N271        N  0.49470827  0.68796131  0.85688383    -0.26600
C272        C  0.48325811  0.66358780  0.87207654    -0.01900
C273        C  0.50709085  0.64356671  0.87776573     0.06700
C274        C  0.53281888  0.65698732  0.86496775     0.04800
H275        H  0.45916798  0.65983585  0.87671489     0.09900
H276        H  0.55548439  0.64709453  0.86306920     0.08800
N277        N  0.80273678  0.63252576  0.72532370    -0.25600
N278        N  0.78196969  0.62075493  0.74439769    -0.33500
C279        C  0.76866940  0.64420855  0.76003681     0.02700
C280        C  0.78188577  0.67166849  0.75033444     0.08800
C281        C  0.80321452  0.66327109  0.72830118    -0.04300
H282        H  0.75023528  0.64157837  0.77664494     0.09400
H283        H  0.81743103  0.67848116  0.71461662     0.10600
Cu284      Cu  0.77239749  0.57283091  0.74681426     0.44200
Cu285      Cu  0.82829361  0.60750647  0.69363502     0.42000
Cu286      Cu  0.82249538  0.52652406  0.69734854     0.43900
N287        N  0.76999322  0.52408258  0.74342394    -0.33000
N288        N  0.78931730  0.50803700  0.72610472    -0.27300
C289        C  0.78209787  0.47808438  0.72756302    -0.03400
C290        C  0.75698872  0.47459860  0.74662211     0.08900
C291        C  0.74975194  0.50420261  0.75636946     0.02700
H292        H  0.79375743  0.46019868  0.71475830     0.10300
H293        H  0.73085640  0.51081771  0.77120770     0.09400
N294        N  0.84576728  0.54878977  0.66212546    -0.34400
N295        N  0.84756861  0.57899078  0.66049186    -0.26600
C296        C  0.85881632  0.58693704  0.63252457    -0.01900
C297        C  0.86437395  0.56041681  0.61591909     0.06700
C298        C  0.85580040  0.53664478  0.63525339     0.04800
H299        H  0.86025555  0.61023034  0.62396995     0.09900
H300        H  0.85427214  0.51259771  0.62924300     0.08800
N301        N  0.72440706  0.84763182  0.47632532    -0.25600
N302        N  0.74544287  0.83012574  0.48971904    -0.33500
C303        C  0.76134533  0.81570901  0.46685587     0.02700
C304        C  0.74966921  0.82501869  0.43819736     0.08800
C305        C  0.72638469  0.84504094  0.44532673    -0.04300
H306        H  0.77932751  0.79906583  0.47076985     0.09400
H307        H  0.71092763  0.85600717  0.42909682     0.10600
Cu308      Cu  0.74944007  0.82658663  0.53906637     0.44200
Cu309      Cu  0.69046531  0.87218598  0.49863276     0.42000
Cu310      Cu  0.69079485  0.87327164  0.57914349     0.43900
N311        N  0.74530049  0.83061207  0.58836444    -0.33000
N312        N  0.72452402  0.84853652  0.60161796    -0.27300
C313        C  0.72633448  0.84599143  0.63263696    -0.03400
C314        C  0.74921555  0.82555335  0.63991080     0.08900
C315        C  0.76083462  0.81596834  0.61133083     0.02700
H316        H  0.71093891  0.85718179  0.64877038     0.10300
H317        H  0.77845855  0.79892122  0.60753504     0.09400
N318        N  0.65454909  0.89101872  0.55410843    -0.34400
N319        N  0.65442522  0.89056691  0.52347257    -0.26600
C320        C  0.62673940  0.89957413  0.51319155    -0.01900
C321        C  0.60873128  0.90607393  0.53874139     0.06700
C322        C  0.62693454  0.90032465  0.56433668     0.04800
H323        H  0.61964130  0.89931832  0.48911131     0.09900
H324        H  0.62001329  0.90076725  0.58846969     0.08800
C325        C  0.27998780  0.75044403  0.75483089     0.88200
C326        C  0.31325601  0.75415309  0.76559006    -0.52100
C327        C  0.32343203  0.78383023  0.76549549     0.11100
C328        C  0.29898274  0.80740952  0.75508027     0.22000
C329        C  0.26129871  0.77153552  0.77605999    -0.52800
C330        C  0.27084864  0.80153121  0.77652290     0.11200
C331        C  0.27895100  0.76585569  0.72278350    -0.52300
C332        C  0.28906213  0.79551084  0.72264758     0.11800
H333        H  0.32786064  0.73487368  0.77165992     0.16300
H334        H  0.30716748  0.83154026  0.75494529     0.02000
H335        H  0.24138688  0.76357858  0.78892234     0.16600
H336        H  0.27205025  0.75390163  0.70176535     0.16400
N337        N  0.20980672  0.63019203  0.72618357    -0.25600
N338        N  0.22914108  0.61416958  0.74351298    -0.33500
C339        C  0.24947886  0.63405637  0.75627579     0.02700
C340        C  0.24229806  0.66363717  0.74639412     0.08800
C341        C  0.21711140  0.66013206  0.72745764    -0.04300
H342        H  0.26842809  0.62745433  0.77104255     0.09400
H343        H  0.20549602  0.67797986  0.71455749     0.10600
Cu344      Cu  0.22670633  0.56541747  0.74705539     0.44200
Cu345      Cu  0.17668926  0.61167050  0.69741722     0.42000
Cu346      Cu  0.17125893  0.53070354  0.69350414     0.43900
N347        N  0.21716252  0.51747583  0.74464372    -0.33000
N348        N  0.19652348  0.50570479  0.72544323    -0.27300
C349        C  0.19607224  0.47495494  0.72837681    -0.03400
C350        C  0.21729039  0.46654420  0.75050684     0.08900
C351        C  0.23041213  0.49400949  0.76031887     0.02700
H352        H  0.18200189  0.45974798  0.71455038     0.10300
H353        H  0.24878795  0.49663074  0.77698671     0.09400
N354        N  0.15239376  0.55919727  0.66009783    -0.34400
N355        N  0.15401871  0.58940161  0.66182808    -0.26600
C356        C  0.14430070  0.60157602  0.63484990    -0.01900
C357        C  0.13611987  0.57781763  0.61534353     0.06700
C358        C  0.14158050  0.55127381  0.63195555     0.04800
H359        H  0.14573850  0.62565598  0.62893788     0.09900
H360        H  0.14031567  0.52799565  0.62334645     0.08800
N361        N  0.33680505  0.85701614  0.60177433    -0.25600
N362        N  0.31418303  0.84256737  0.58735443    -0.33500
C363        C  0.29640689  0.82889702  0.60911111     0.02700
C364        C  0.30849910  0.83524698  0.63829703     0.08800
C365        C  0.33405706  0.85299067  0.63265206    -0.04300
H366        H  0.27675142  0.81460635  0.60403834     0.09400
H367        H  0.35022657  0.86143861  0.64968288     0.10600
Cu368      Cu  0.31034699  0.84081871  0.53824600     0.44200
Cu369      Cu  0.37278361  0.87916415  0.57972378     0.42000
Cu370      Cu  0.37307121  0.87882297  0.49694110     0.43900
N371        N  0.31434701  0.84247915  0.48914558    -0.33000
N372        N  0.33710253  0.85679050  0.47478594    -0.27300
C373        C  0.33442345  0.85279904  0.44390163    -0.03400
C374        C  0.30877081  0.83522251  0.43818665     0.08900
C375        C  0.29654840  0.82893318  0.46734064     0.02700
H376        H  0.35067577  0.86118966  0.42691096     0.10300
H377        H  0.27676609  0.81479304  0.47235826     0.09400
N378        N  0.40962339  0.89479553  0.52303585    -0.34400
N379        N  0.40950909  0.89494530  0.55373492    -0.26600
C380        C  0.43749265  0.90306197  0.56400229    -0.01900
C381        C  0.45592950  0.90831645  0.53848123     0.06700
C382        C  0.43768280  0.90281114  0.51288473     0.04800
H383        H  0.44438251  0.90318751  0.58814568     0.09900
H384        H  0.44474932  0.90270644  0.48879172     0.08800
C385        C  0.22000043  0.25149246  0.25493354     0.88200
C386        C  0.22084071  0.26655962  0.22271375    -0.52100
C387        C  0.21085384  0.29624527  0.22233543     0.11100
C388        C  0.20124349  0.30851902  0.25472707     0.22000
C389        C  0.23895461  0.27273376  0.27576780    -0.52800
C390        C  0.22951162  0.30275154  0.27600309     0.11200
C391        C  0.18683277  0.25543397  0.26594322    -0.52300
C392        C  0.17678060  0.28514505  0.26560686     0.11800
H393        H  0.22751373  0.25435347  0.20176705     0.16300
H394        H  0.19315891  0.33267599  0.25440649     0.02000
H395        H  0.25890050  0.26483732  0.28859695     0.16600
H396        H  0.17218823  0.23627089  0.27232461     0.16400
C397        C  0.21970109  0.25051308  0.82068992     0.88200
C398        C  0.18649291  0.25428774  0.80975126    -0.52100
C399        C  0.17636188  0.28397450  0.80986919     0.11100
C400        C  0.20079536  0.30749628  0.82047994     0.22000
C401        C  0.23854858  0.27165494  0.79962076    -0.52800
C402        C  0.22903682  0.30165552  0.79916955     0.11200
C403        C  0.22058007  0.26583099  0.85277998    -0.52300
C404        C  0.21051240  0.29549158  0.85294371     0.11800
H405        H  0.17188395  0.23503891  0.80356678     0.16300
H406        H  0.19264701  0.33163362  0.82063115     0.02000
H407        H  0.25851221  0.26372157  0.78683881     0.16600
H408        H  0.22733072  0.25380102  0.87380883     0.16400
C409        C  0.20331235  0.84891646  0.26754044     0.88200
C410        C  0.21197933  0.83899527  0.23460241    -0.52100
C411        C  0.24275239  0.83904497  0.22888596     0.11100
C412        C  0.26238202  0.84873775  0.25734475     0.22000
C413        C  0.22094860  0.82733334  0.28899205    -0.52800
C414        C  0.25195843  0.82663375  0.28398014     0.11200
C415        C  0.21832219  0.88035908  0.27175099    -0.52300
C416        C  0.24909023  0.88073394  0.26609406     0.11800
H417        H  0.19510760  0.83315252  0.21698591     0.16300
H418        H  0.28743274  0.84865733  0.25272926     0.02000
H419        H  0.20964461  0.81277611  0.30599666     0.16600
H420        H  0.20531293  0.90102977  0.27680603     0.16400
C421        C  0.78057242  0.88803717  0.25566097     0.88200
C422        C  0.77953720  0.87266695  0.22359783    -0.52100
C423        C  0.78957928  0.84299392  0.22343817     0.11100
C424        C  0.79941342  0.83103536  0.25589178     0.22000
C425        C  0.76180477  0.86697236  0.27685068    -0.52800
C426        C  0.77125890  0.83696184  0.27731577     0.11200
C427        C  0.81381717  0.88425398  0.26645823    -0.52300
C428        C  0.82392326  0.85456012  0.26634805     0.11800
H429        H  0.77271609  0.88467340  0.20257990     0.16300
H430        H  0.80753330  0.80688918  0.25575436     0.02000
H431        H  0.74191643  0.87497016  0.28971462     0.16600
H432        H  0.82846903  0.90350345  0.27253557     0.16400
N433        N  0.07360965  0.88987208  0.30315751    -0.25600
N434        N  0.06099832  0.86570389  0.28952083    -0.33500
C435        C  0.08389432  0.84803733  0.27802833     0.02700
C436        C  0.11171486  0.86202992  0.28498209     0.08800
C437        C  0.10422834  0.88832867  0.30076342    -0.04300
H438        H  0.08056259  0.82672642  0.26560301     0.09400
H439        H  0.11993169  0.90523287  0.31002239     0.10600
Cu440      Cu  0.01285368  0.85863189  0.28786125     0.44200
Cu441      Cu  0.05083688  0.92449765  0.32602953     0.42000
Cu442      Cu  0.97267659  0.91422204  0.33710322     0.43900
N443        N  0.96446177  0.86062142  0.29289164    -0.33000
N444        N  0.95104572  0.88063997  0.31162384    -0.27300
C445        C  0.92050390  0.87774146  0.30969714    -0.03400
C446        C  0.91382042  0.85484106  0.28887857     0.08900
C447        C  0.94214843  0.84438223  0.27836205     0.02700
H448        H  0.90426049  0.89223996  0.32175727     0.10300
H449        H  0.94618580  0.82700517  0.26089652     0.09400
N450        N  0.99563318  0.95097241  0.35602944    -0.34400
N451        N  0.02520795  0.95521331  0.35135182    -0.26600
C452        C  0.03351666  0.98242813  0.36334575    -0.01900
C453        C  0.00779292  0.99568654  0.37629769     0.06700
C454        C  0.98410659  0.97536429  0.37109289     0.04800
H455        H  0.05605695  0.99254935  0.36108366     0.09900
H456        H  0.96003096  0.97890899  0.37595243     0.08800
C457        C  0.20305223  0.84785104  0.80884283     0.88200
C458        C  0.21801236  0.87929445  0.80438909    -0.52100
C459        C  0.24878962  0.87974872  0.80998820     0.11100
C460        C  0.26213564  0.84782991  0.81892600     0.22000
C461        C  0.22068758  0.82616437  0.78750611    -0.52800
C462        C  0.25170642  0.82555813  0.79244794     0.11200
C463        C  0.21177767  0.83815102  0.84183035    -0.52300
C464        C  0.24255730  0.83829225  0.84749484     0.11800
H465        H  0.20496514  0.89991624  0.79922938     0.16300
H466        H  0.28719349  0.84781924  0.82349234     0.02000
H467        H  0.20938752  0.81153970  0.77057251     0.16600
H468        H  0.19493501  0.83241820  0.85952429     0.16400
N469        N  0.28940555  0.13018418  0.85001017    -0.25600
N470        N  0.27020319  0.11415608  0.83253104    -0.33500
C471        C  0.25000073  0.13404736  0.81956203     0.02700
C472        C  0.25713032  0.16363786  0.82946828     0.08800
C473        C  0.28214691  0.16012816  0.84863541    -0.04300
H474        H  0.23118404  0.12744554  0.80461742     0.09400
H475        H  0.29369517  0.17798436  0.86159029     0.10600
Cu476      Cu  0.27267399  0.06538708  0.82905237     0.44200
Cu477      Cu  0.32238075  0.11165569  0.87894353     0.42000
Cu478      Cu  0.32804202  0.03066536  0.88277495     0.43900
N479        N  0.28219503  0.01743073  0.83153759    -0.33000
N480        N  0.30278408  0.00566121  0.85079442    -0.27300
C481        C  0.30323858  0.97491014  0.84785218    -0.03400
C482        C  0.28207533  0.96649092  0.82566366     0.08900
C483        C  0.26898427  0.99396044  0.81582351     0.02700
H484        H  0.31729307  0.95970468  0.86169334     0.10300
H485        H  0.25066792  0.99658283  0.79909027     0.09400
N486        N  0.34702938  0.05920576  0.91610230    -0.34400
N487        N  0.34530615  0.08940644  0.91438556    -0.26600
C488        C  0.35523006  0.10160791  0.94127018    -0.01900
C489        C  0.36365083  0.07787980  0.96071095     0.06700
C490        C  0.35811324  0.05131635  0.94415313     0.04800
H491        H  0.35379184  0.12568312  0.94718164     0.09900
H492        H  0.35953317  0.02803904  0.95275305     0.08800
C493        C  0.78043063  0.88739985  0.82161411     0.88200
C494        C  0.81361363  0.88346777  0.81067397    -0.52100
C495        C  0.82365244  0.85375474  0.81094823     0.11100
C496        C  0.79913273  0.83035765  0.82168799     0.22000
C497        C  0.76150213  0.86624673  0.80067361    -0.52800
C498        C  0.77089499  0.83621818  0.80037623     0.11200
C499        C  0.77950286  0.87223821  0.85378819    -0.52300
C500        C  0.78946133  0.84254027  0.85409694     0.11800
H501        H  0.82829167  0.90264566  0.80441633     0.16300
H502        H  0.80719425  0.80619222  0.82195433     0.02000
H503        H  0.74156868  0.87419761  0.78785893     0.16600
H504        H  0.77278950  0.88438644  0.87475558     0.16400
N505        N  0.69750608  0.13219478  0.85087922    -0.25600
N506        N  0.71818255  0.12045512  0.83170258    -0.33500
C507        C  0.73142270  0.14393956  0.81602317     0.02700
C508        C  0.71825535  0.17138779  0.82580836     0.08800
C509        C  0.69702155  0.16294377  0.84792922    -0.04300
H510        H  0.74978504  0.14133928  0.79933054     0.09400
H511        H  0.68287420  0.17812698  0.86169708     0.10600
Cu512      Cu  0.72767470  0.07251109  0.82926155     0.44200
Cu513      Cu  0.67214772  0.10711220  0.88270696     0.42000
Cu514      Cu  0.67743399  0.02614609  0.87872606     0.43900
N515        N  0.72996961  0.02374700  0.83268421    -0.33000
N516        N  0.71054410  0.00770287  0.84991257    -0.27300
C517        C  0.71778276  0.97775884  0.84856974    -0.03400
C518        C  0.74302218  0.97427398  0.82970380     0.08900
C519        C  0.75030757  0.00386688  0.81992736     0.02700
H520        H  0.70610315  0.95989470  0.86140440     0.10300
H521        H  0.76933427  0.01048225  0.80525415     0.09400
N522        N  0.65479142  0.04838999  0.91434461    -0.34400
N523        N  0.65318938  0.07859513  0.91606262    -0.26600
C524        C  0.64236268  0.08652898  0.94419402    -0.01900
C525        C  0.63687644  0.06000045  0.96082396     0.06700
C526        C  0.64505674  0.03622671  0.94133363     0.04800
H527        H  0.64112317  0.10981374  0.95279533     0.09900
H528        H  0.64648484  0.01215168  0.94726260     0.08800
N529        N  0.07339740  0.88867494  0.77317793    -0.25600
N530        N  0.06073802  0.86466246  0.78706660    -0.33500
C531        C  0.08360657  0.84699068  0.79860796     0.02700
C532        C  0.11145647  0.86081690  0.79141377     0.08800
C533        C  0.10401603  0.88702249  0.77544850    -0.04300
H534        H  0.08023550  0.82581217  0.81126313     0.09400
H535        H  0.11975039  0.90382277  0.76603160     0.10600
Cu536      Cu  0.01256761  0.85785157  0.78906840     0.44200
Cu537      Cu  0.05070398  0.92335232  0.75031131     0.42000
Cu538      Cu  0.97221768  0.91442523  0.74099845     0.43900
N539        N  0.96415093  0.86013449  0.78444710    -0.33000
N540        N  0.95067240  0.88056872  0.76622110    -0.27300
C541        C  0.92013754  0.87766399  0.76824835    -0.03400
C542        C  0.91352392  0.85432734  0.78860050     0.08900
C543        C  0.94188516  0.84361127  0.79874055     0.02700
H544        H  0.90385431  0.89237691  0.75651613     0.10300
H545        H  0.94598303  0.82581311  0.81575993     0.09400
N546        N  0.99538986  0.95073887  0.72143708    -0.34400
N547        N  0.02513874  0.95442658  0.72538271    -0.26600
C548        C  0.03373064  0.98133858  0.71288125    -0.01900
C549        C  0.00800097  0.99497473  0.70035817     0.06700
C550        C  0.98402847  0.97519569  0.70634400     0.04800
H551        H  0.05653546  0.99098426  0.71443200     0.09900
H552        H  0.95993931  0.97912599  0.70188524     0.08800
N553        N  0.83763678  0.78209088  0.97531467    -0.25600
N554        N  0.81487974  0.79636088  0.98969199    -0.33500
C555        C  0.79700303  0.80980159  0.96788201     0.02700
C556        C  0.80917631  0.80348595  0.93871194     0.08800
C557        C  0.83488286  0.78600389  0.94442398    -0.04300
H558        H  0.77719726  0.82389096  0.97290224     0.09400
H559        H  0.85112034  0.77762748  0.92742365     0.10600
Cu560      Cu  0.81097786  0.79809557  0.03882906     0.44200
Cu561      Cu  0.87370587  0.76021329  0.99742873     0.42000
Cu562      Cu  0.87367000  0.76014109  0.08022628     0.43900
N563        N  0.81489451  0.79639768  0.08796672    -0.33000
N564        N  0.83762494  0.78209267  0.10235015    -0.27300
C565        C  0.83489063  0.78606116  0.13323749    -0.03400
C566        C  0.80922896  0.80361964  0.13894202     0.08900
C567        C  0.79706105  0.80991706  0.10976595     0.02700
H568        H  0.85112200  0.77767999  0.15024074     0.10300
H569        H  0.77729441  0.82405499  0.10473191     0.09400
N570        N  0.91033454  0.74434862  0.05416491    -0.34400
N571        N  0.91034427  0.74438409  0.02346494    -0.26600
C572        C  0.93836046  0.73632984  0.01324614    -0.01900
C573        C  0.95668925  0.73091617  0.03879935     0.06700
C574        C  0.93834824  0.73626835  0.06436527     0.04800
H575        H  0.94533981  0.73633408  0.98912626     0.09900
H576        H  0.94531932  0.73621481  0.08848436     0.08800
C577        C  0.79738026  0.29108734  0.26731003     0.88200
C578        C  0.78851008  0.30063348  0.23432786    -0.52100
C579        C  0.75772608  0.30026006  0.22874211     0.11100
C580        C  0.73827571  0.29066383  0.25737349     0.22000
C581        C  0.77964261  0.31270873  0.28863096    -0.52800
C582        C  0.74860546  0.31308209  0.28375657     0.11200
C583        C  0.78265290  0.25954700  0.27188800    -0.52300
C584        C  0.75186270  0.25886760  0.26637287     0.11800
H585        H  0.80526945  0.30644182  0.21657618     0.16300
H586        H  0.71320913  0.29048789  0.25286058     0.02000
H587        H  0.79088175  0.32747115  0.30548582     0.16600
H588        H  0.79585616  0.23902992  0.27706794     0.16400
C589        C  0.79709161  0.29000779  0.80819309     0.88200
C590        C  0.78206976  0.25858446  0.80385697    -0.52100
C591        C  0.75134961  0.25813940  0.80976943     0.11100
C592        C  0.73810117  0.29005087  0.81886734     0.22000
C593        C  0.77926120  0.31175042  0.78705527    -0.52800
C594        C  0.74828171  0.31236046  0.79231071     0.11200
C595        C  0.78867334  0.29966295  0.84127637    -0.52300
C596        C  0.75794839  0.29954167  0.84724003     0.11800
H597        H  0.79505772  0.23795886  0.79856501     0.16300
H598        H  0.71308850  0.29006531  0.82369041     0.02000
H599        H  0.79040886  0.32642390  0.77004895     0.16600
H600        H  0.80567818  0.30537104  0.85880751     0.16400
N601        N  0.77580748  0.34644335  0.10062267    -0.25600
N602        N  0.75485103  0.32874779  0.08733836    -0.33500
C603        C  0.73898717  0.31441430  0.11029459     0.02700
C604        C  0.75060136  0.32398110  0.13888525     0.08800
C605        C  0.77380955  0.34405888  0.13163365    -0.04300
H606        H  0.72107551  0.29765686  0.10649315     0.09400
H607        H  0.78920691  0.35520807  0.14779541     0.10600
Cu608      Cu  0.75084229  0.32484117  0.03802377     0.44200
Cu609      Cu  0.80967557  0.37106901  0.07826090     0.42000
Cu610      Cu  0.80944360  0.37147683  0.99786949     0.43900
N611        N  0.75500225  0.32868928  0.98871188    -0.33000
N612        N  0.77583019  0.34656504  0.97544891    -0.27300
C613        C  0.77398945  0.34406810  0.94443612    -0.03400
C614        C  0.75102490  0.32372343  0.93716165     0.08900
C615        C  0.73938674  0.31412514  0.96574349     0.02700
H616        H  0.78934831  0.35532061  0.92829566     0.10300
H617        H  0.72163713  0.29719343  0.96953467     0.09400
N618        N  0.84541789  0.38995892  0.02273099    -0.34400
N619        N  0.84552229  0.38976810  0.05336601    -0.26600
C620        C  0.87304980  0.39933088  0.06358349    -0.01900
C621        C  0.89096187  0.40593093  0.03798083     0.06700
C622        C  0.87287737  0.39964904  0.01243117     0.04800
H623        H  0.88013653  0.39939173  0.08766799     0.09900
H624        H  0.87980647  0.39999928  0.98829795     0.08800
N625        N  0.92721495  0.25038975  0.30178910    -0.25600
N626        N  0.93981202  0.27471205  0.28841422    -0.33500
C627        C  0.91689808  0.29251246  0.27716646     0.02700
C628        C  0.88909050  0.27842815  0.28402459     0.08800
C629        C  0.89660182  0.25195419  0.29947862    -0.04300
H630        H  0.92020598  0.31398599  0.26501281     0.09400
H631        H  0.88091428  0.23496207  0.30861805     0.10600
Cu632      Cu  0.98795650  0.28176085  0.28694213     0.44200
Cu633      Cu  0.94995387  0.21560856  0.32437950     0.42000
Cu634      Cu  0.02788581  0.22596923  0.33640404     0.43900
N635        N  0.03630096  0.27968232  0.29228700    -0.33000
N636        N  0.04960746  0.25966930  0.31111489    -0.27300
C637        C  0.08016049  0.26253568  0.30930909    -0.03400
C638        C  0.08695838  0.28538929  0.28846247     0.08900
C639        C  0.05869531  0.29586291  0.27780896     0.02700
H640        H  0.09633518  0.24799073  0.32140670     0.10300
H641        H  0.05475749  0.31317226  0.26024406     0.09400
N642        N  0.00477888  0.18910411  0.35497099    -0.34400
N643        N  0.97527054  0.18485241  0.34991449    -0.26600
C644        C  0.96678006  0.15768125  0.36188742    -0.01900
C645        C  0.99231834  0.14445211  0.37522247     0.06700
C646        C  0.01609093  0.16474467  0.37026493     0.04800
H647        H  0.94423848  0.14760774  0.35944145     0.09900
H648        H  0.04008500  0.16123821  0.37553986     0.08800
N649        N  0.04934706  0.25878204  0.76352273    -0.25600
N650        N  0.03592922  0.27846569  0.78261612    -0.33500
C651        C  0.05823970  0.29444796  0.79743597     0.02700
C652        C  0.08656802  0.28418677  0.78672711     0.08800
C653        C  0.07988887  0.26166062  0.76549267    -0.04300
H654        H  0.05420108  0.31147028  0.81525679     0.09400
H655        H  0.09613396  0.24733261  0.75323029     0.10600
Cu656      Cu  0.98754748  0.28031593  0.78778781     0.44200
Cu657      Cu  0.02775498  0.22543359  0.73768715     0.42000
Cu658      Cu  0.94972038  0.21459346  0.74939716     0.43900
N659        N  0.93940867  0.27321809  0.78611116    -0.33000
N660        N  0.92683475  0.24907488  0.77239768    -0.27300
C661        C  0.89620763  0.25060353  0.77473601    -0.03400
C662        C  0.88867781  0.27687429  0.79055461     0.08900
C663        C  0.91648515  0.29085455  0.79759654     0.02700
H664        H  0.88052704  0.23372525  0.76538884     0.10300
H665        H  0.91978762  0.31214942  0.81005637     0.09400
N666        N  0.97538347  0.18411873  0.72379294    -0.34400
N667        N  0.00488737  0.18857159  0.71885533    -0.26600
C668        C  0.01646106  0.16424994  0.70370495    -0.01900
C669        C  0.99287534  0.14375471  0.69871097     0.06700
C670        C  0.96717039  0.15684268  0.71187726     0.04800
H671        H  0.04052487  0.16085716  0.69867328     0.09900
H672        H  0.94472996  0.14655272  0.71436139     0.08800
N673        N  0.28971501  0.13121830  0.22613052    -0.25600
N674        N  0.27043841  0.11514915  0.24350776    -0.33500
C675        C  0.25020954  0.13501425  0.25647200     0.02700
C676        C  0.25741080  0.16462536  0.24667778     0.08800
C677        C  0.28248867  0.16116190  0.22758474    -0.04300
H678        H  0.23130970  0.12837814  0.27130128     0.09400
H679        H  0.29406411  0.17904524  0.21468035     0.10600
Cu680      Cu  0.27278106  0.06637084  0.24686291     0.44200
Cu681      Cu  0.32264508  0.11282148  0.19705436     0.42000
Cu682      Cu  0.32829615  0.03186406  0.19332281     0.43900
N683        N  0.28230670  0.01842541  0.24434940    -0.33000
N684        N  0.30298551  0.00672574  0.22514975    -0.27300
C685        C  0.30349308  0.97597147  0.22805619    -0.03400
C686        C  0.28226992  0.96747798  0.25017005     0.08900
C687        C  0.26908642  0.99490662  0.25999687     0.02700
H688        H  0.31764277  0.96081844  0.21425781     0.10300
H689        H  0.25072369  0.99746945  0.27669333     0.09400
N690        N  0.34719812  0.06036607  0.15991635    -0.34400
N691        N  0.34543319  0.09056864  0.16151913    -0.26600
C692        C  0.35525031  0.10268717  0.13453764    -0.01900
C693        C  0.36365679  0.07888640  0.11517624     0.06700
C694        C  0.35821335  0.05238889  0.13187166     0.04800
H695        H  0.35377278  0.12673983  0.12852909     0.09900
H696        H  0.35964600  0.02907944  0.12337233     0.08800
N697        N  0.69817083  0.13291647  0.22551945    -0.25600
N698        N  0.71840108  0.12108015  0.24511967    -0.33500
C699        C  0.73152251  0.14451389  0.26096589     0.02700
C700        C  0.71874490  0.17203035  0.25084259     0.08800
C701        C  0.69786409  0.16367527  0.22835978    -0.04300
H702        H  0.74957134  0.14182933  0.27798549     0.09400
H703        H  0.68410099  0.17892380  0.21426851     0.10600
Cu704      Cu  0.72759656  0.07308878  0.24783383     0.44200
Cu705      Cu  0.67316494  0.10797842  0.19329267     0.42000
Cu706      Cu  0.67817813  0.02699417  0.19740766     0.43900
N707        N  0.72994632  0.02433559  0.24428747    -0.33000
N708        N  0.71085990  0.00837722  0.22661256    -0.27300
C709        C  0.71812167  0.97843320  0.22790273    -0.03400
C710        C  0.74301852  0.97485782  0.24721119     0.08900
C711        C  0.75007119  0.00440006  0.25730187     0.02700
H712        H  0.70670191  0.96063445  0.21474736     0.10300
H713        H  0.76882234  0.01094960  0.27235247     0.09400
N714        N  0.65566108  0.04928948  0.16173420    -0.34400
N715        N  0.65418656  0.07949692  0.15991727    -0.26600
C716        C  0.64327113  0.08739215  0.13180250    -0.01900
C717        C  0.63758630  0.06082467  0.11530691     0.06700
C718        C  0.64574532  0.03708477  0.13484735     0.04800
H719        H  0.64202493  0.11065809  0.12314221     0.09900
H720        H  0.64697448  0.01297615  0.12902830     0.08800
N721        N  0.16220646  0.35618257  0.97402467    -0.25600
N722        N  0.18493735  0.34187430  0.98840420    -0.33500
C723        C  0.20278486  0.32838123  0.96660450     0.02700
C724        C  0.19062612  0.33469967  0.93743435     0.08800
C725        C  0.16495267  0.35223931  0.94313586    -0.04300
H726        H  0.22257206  0.31426804  0.97163333     0.09400
H727        H  0.14874467  0.36065552  0.92612943     0.10600
Cu728      Cu  0.18889535  0.34018887  0.03752768     0.44200
Cu729      Cu  0.12622907  0.37823803  0.99614582     0.42000
Cu730      Cu  0.12632113  0.37827648  0.07894421     0.43900
N731        N  0.18506826  0.34199126  0.08665816    -0.33000
N732        N  0.16235356  0.35631742  0.10104615    -0.27300
C733        C  0.16516878  0.35247622  0.13194004    -0.03400
C734        C  0.19087225  0.33498553  0.13764000     0.08900
C735        C  0.20297900  0.32858677  0.10846126     0.02700
H736        H  0.14898913  0.36093366  0.14895793     0.10300
H737        H  0.22277434  0.31448516  0.10343415     0.09400
N738        N  0.08979773  0.39442779  0.05293679    -0.34400
N739        N  0.08976143  0.39442084  0.02223699    -0.26600
C740        C  0.06183127  0.40281859  0.01206595    -0.01900
C741        C  0.04359401  0.40842905  0.03765096     0.06700
C742        C  0.06189405  0.40282808  0.06318456     0.04800
H743        H  0.05482610  0.40291903  0.98795716     0.09900
H744        H  0.05494984  0.40293797  0.08731496     0.08800
N745        N  0.22494470  0.79177822  0.97578058    -0.25600
N746        N  0.24602825  0.80938789  0.98897169    -0.33500
C747        C  0.26175842  0.82375324  0.96593240     0.02700
C748        C  0.24991254  0.81429702  0.93738889     0.08800
C749        C  0.22672219  0.79424516  0.94476276    -0.04300
H750        H  0.27972659  0.84046650  0.96964865     0.09400
H751        H  0.21117106  0.78318653  0.92868799     0.10600
Cu752      Cu  0.25028253  0.81313529  0.03831052     0.44200
Cu753      Cu  0.19110389  0.76728284  0.99830054     0.42000
Cu754      Cu  0.19150384  0.76671939  0.07864021     0.43900
N755        N  0.24622980  0.80919545  0.08765618    -0.33000
N756        N  0.22538014  0.79136620  0.10095351    -0.27300
C757        C  0.22725251  0.79387483  0.13196407    -0.03400
C758        C  0.25024961  0.81418995  0.13921268     0.08900
C759        C  0.26188178  0.82374900  0.11061033     0.02700
H760        H  0.21183128  0.78272962  0.14811523     0.10300
H761        H  0.27960493  0.84070307  0.10679584     0.09400
N762        N  0.15522194  0.74875342  0.05384899    -0.34400
N763        N  0.15507715  0.74899147  0.02321585    -0.26600
C764        C  0.12741086  0.73982452  0.01301798    -0.01900
C765        C  0.10944211  0.73343757  0.03863161     0.06700
C766        C  0.12764266  0.73942749  0.06417184     0.04800
H767        H  0.12030070  0.73988110  0.98894054     0.09900
H768        H  0.12074562  0.73911330  0.08831316     0.08800
C769        C  0.92343848  0.41150195  0.03789874    -0.16800
C770        C  0.95097085  0.41398020  0.03783168     0.07200
C771        C  0.98334329  0.41448272  0.03775806     0.09100
C772        C  0.01094152  0.41288433  0.03770234    -0.17700
C773        C  0.74693971  0.30601052  0.87853495    -0.11600
C774        C  0.74501344  0.31267662  0.90589598    -0.13200
C775        C  0.83053946  0.28959952  0.80262091    -0.11600
C776        C  0.85771976  0.28620040  0.79793929    -0.13200
C777        C  0.83087886  0.29099522  0.27246086    -0.11600
C778        C  0.85811931  0.28780217  0.27685683    -0.13200
C779        C  0.74636673  0.30654311  0.19754957    -0.11600
C780        C  0.74438866  0.31308305  0.17016373    -0.13200
C781        C  0.73627077  0.22941615  0.26328323    -0.11600
C782        C  0.72753424  0.20326865  0.25883588    -0.13200
C783        C  0.98938483  0.72677708  0.03879102    -0.16800
C784        C  0.01699250  0.72533136  0.03877956     0.07200
C785        C  0.04936637  0.72584537  0.03876144     0.09100
C786        C  0.07691170  0.72818482  0.03872676    -0.17700
C787        C  0.00539526  0.02617906  0.69033149    -0.16800
C788        C  0.00264037  0.05323837  0.68572438     0.07200
C789        C  0.99905990  0.08529340  0.68532538     0.09100
C790        C  0.99604647  0.11242117  0.68929741    -0.17700
C791        C  0.63214447  0.05866534  0.08243193    -0.16800
C792        C  0.62993079  0.05755259  0.05452351     0.07200
C793        C  0.62977822  0.05727431  0.02170270     0.09100
C794        C  0.63173240  0.05800621  0.99376063    -0.17700
C795        C  0.73563739  0.22878783  0.81318479    -0.11600
C796        C  0.72692740  0.20265581  0.81778767    -0.13200
C797        C  0.79423567  0.82629026  0.88328057    -0.11600
C798        C  0.79979224  0.81539221  0.90865205    -0.13200
C799        C  0.88281560  0.84670496  0.79882558    -0.11600
C800        C  0.85563399  0.84662752  0.80479910    -0.13200
C801        C  0.76953408  0.91973851  0.82193979    -0.11600
C802        C  0.75885900  0.94544534  0.82403644    -0.13200
C803        C  0.36903644  0.08079246  0.08226908    -0.16800
C804        C  0.37117656  0.08145297  0.05433706     0.07200
C805        C  0.37119441  0.08111823  0.02151320     0.09100
C806        C  0.36906731  0.07999575  0.99359633    -0.17700
C807        C  0.26454574  0.90910117  0.81320839    -0.11600
C808        C  0.27332302  0.93522891  0.81770523    -0.13200
C809        C  0.25591314  0.82525760  0.90607536    -0.11600
C810        C  0.25383892  0.83186254  0.87870345    -0.13200
C811        C  0.16957232  0.84820177  0.80354536    -0.11600
C812        C  0.14238223  0.85151396  0.79890544    -0.13200
C813        C  0.00474633  0.02700916  0.38577308    -0.16800
C814        C  0.00173104  0.05412103  0.38983306     0.07200
C815        C  0.99805123  0.08616122  0.38956594     0.09100
C816        C  0.99515358  0.11322331  0.38508690    -0.17700
C817        C  0.85591884  0.84750792  0.27250832    -0.11600
C818        C  0.88308904  0.84749880  0.27852722    -0.13200
C819        C  0.76956833  0.92034651  0.25517980    -0.11600
C820        C  0.75882531  0.94602314  0.25298897    -0.13200
C821        C  0.79434898  0.82661207  0.19432382    -0.11600
C822        C  0.79989075  0.81562206  0.16898620    -0.13200
C823        C  0.26487397  0.91005548  0.26270878    -0.11600
C824        C  0.27360593  0.93618899  0.25813836    -0.13200
C825        C  0.16983825  0.84935275  0.27289084    -0.11600
C826        C  0.14265268  0.85271570  0.27753668    -0.13200
C827        C  0.25611795  0.82542232  0.17044227    -0.11600
C828        C  0.25400575  0.83229747  0.19773804    -0.13200
C829        C  0.20564214  0.31183203  0.88205315    -0.11600
C830        C  0.20002609  0.32277527  0.90738829    -0.13200
C831        C  0.24139003  0.19249319  0.82353998    -0.11600
C832        C  0.23070819  0.21819214  0.82121844    -0.13200
C833        C  0.11727914  0.29122889  0.79734088    -0.11600
C834        C  0.14440805  0.29105711  0.80353687    -0.13200
C835        C  0.20598216  0.31239032  0.19311020    -0.11600
C836        C  0.20034421  0.32319058  0.16771516    -0.13200
C837        C  0.24160734  0.19345065  0.25250041    -0.11600
C838        C  0.23092872  0.21915619  0.25465402    -0.13200
C839        C  0.14485434  0.29234473  0.27191884    -0.11600
C840        C  0.11771206  0.29252919  0.27804706    -0.13200
C841        C  0.25815385  0.69246939  0.75211209    -0.11600
C842        C  0.26891652  0.71814559  0.75432102    -0.13200
C843        C  0.29375002  0.81197543  0.69357844    -0.11600
C844        C  0.29923130  0.82308872  0.66828758    -0.13200
C845        C  0.48863384  0.91243756  0.53857599    -0.16800
C846        C  0.51624434  0.91389520  0.53865557     0.07200
C847        C  0.54862323  0.91344157  0.53873492     0.09100
C848        C  0.57617748  0.91119218  0.53876959    -0.17700
C849        C  0.38255485  0.79088446  0.77787915    -0.11600
C850        C  0.35541635  0.79085357  0.77173473    -0.13200
C851        C  0.75299393  0.80712512  0.69836454    -0.11600
C852        C  0.75500710  0.81419753  0.67111139    -0.13200
C853        C  0.76436581  0.72898255  0.76299475    -0.11600
C854        C  0.77316448  0.70290240  0.75835278    -0.13200
C855        C  0.66933838  0.78953211  0.77396295    -0.11600
C856        C  0.64214315  0.78612557  0.77857941    -0.13200
C857        C  0.24478234  0.32584184  0.66964666    -0.11600
C858        C  0.24665627  0.33235398  0.69705531    -0.13200
C859        C  0.23499966  0.40920977  0.76281386    -0.11600
C860        C  0.22611389  0.43529833  0.75838040    -0.13200
C861        C  0.49535108  0.52597657  0.88766131    -0.16800
C862        C  0.49811520  0.55309536  0.89192537     0.07200
C863        C  0.50152759  0.58518269  0.89188185     0.09100
C864        C  0.50428207  0.61229431  0.88755239    -0.17700
C865        C  0.33032412  0.34903332  0.77286965    -0.11600
C866        C  0.35747421  0.35250905  0.77769429    -0.13200
C867        C  0.42411607  0.22853663  0.53715978    -0.16800
C868        C  0.45162748  0.22588518  0.53722264     0.07200
C869        C  0.48398753  0.22507591  0.53737481     0.09100
C870        C  0.51159772  0.22638801  0.53752486    -0.17700
C871        C  0.70602201  0.32663226  0.69368071    -0.11600
C872        C  0.70053299  0.31583467  0.66826241    -0.13200
C873        C  0.61705904  0.34722919  0.77766559    -0.11600
C874        C  0.64426637  0.34709488  0.77179408    -0.13200
C875        C  0.73065354  0.42002149  0.75496221    -0.11600
C876        C  0.74128944  0.44573773  0.75262341    -0.13200
C877        C  0.64465931  0.34733255  0.30417414    -0.11600
C878        C  0.61751889  0.34728911  0.29803326    -0.13200
C879        C  0.70632703  0.32676715  0.38252754    -0.11600
C880        C  0.70089424  0.31580019  0.40789194    -0.13200
C881        C  0.86916210  0.55863486  0.49436006    -0.16800
C882        C  0.87149147  0.55768563  0.52226386     0.07200
C883        C  0.87171368  0.55760849  0.55508301     0.09100
C884        C  0.86971972  0.55844467  0.58301735    -0.17700
C885        C  0.74136644  0.44621846  0.32390210    -0.11600
C886        C  0.73074309  0.42049962  0.32156797    -0.13200
C887        C  0.49664130  0.52723449  0.19034254    -0.16800
C888        C  0.49959258  0.55434175  0.18614806     0.07200
C889        C  0.50315079  0.58640554  0.18620070     0.09100
C890        C  0.50594554  0.61350938  0.19050632    -0.17700
C891        C  0.66978286  0.79071128  0.30466113    -0.11600
C892        C  0.64255147  0.78745770  0.30020253    -0.13200
C893        C  0.77336797  0.70345190  0.31870794    -0.11600
C894        C  0.76461821  0.72959288  0.31429727    -0.13200
C895        C  0.75407012  0.80719554  0.37963729    -0.11600
C896        C  0.75594043  0.81394835  0.40698404    -0.13200
C897        C  0.13103452  0.58017800  0.49373524    -0.16800
C898        C  0.12896601  0.58097845  0.52166664     0.07200
C899        C  0.12893761  0.58085977  0.55448865     0.09100
C900        C  0.13095051  0.57988436  0.58241793    -0.17700
C901        C  0.26883646  0.71896929  0.32148264    -0.11600
C902        C  0.25796986  0.69333440  0.32363701    -0.13200
C903        C  0.35560851  0.79153933  0.30465245    -0.11600
C904        C  0.38280369  0.79162681  0.29874340    -0.13200
C905        C  0.29395286  0.81229247  0.38279394    -0.11600
C906        C  0.29946345  0.82323273  0.40814826    -0.13200
C907        C  0.24675336  0.33263463  0.37800431    -0.11600
C908        C  0.24470516  0.32577486  0.40530809    -0.13200
C909        C  0.23561360  0.41019124  0.31283535    -0.11600
C910        C  0.22670913  0.43624623  0.31740893    -0.13200
C911        C  0.33080190  0.34975113  0.30274895    -0.11600
C912        C  0.35800385  0.35315309  0.29819883    -0.13200
loop_ 
_geom_bond_atom_site_label_1 
_geom_bond_atom_site_label_2 
_geom_bond_distance 
_geom_bond_site_symmetry_2 
_ccdc_geom_bond_type 
C1            C2   1.530       .  S
C1            C7   1.530       .  S
C1            C5   1.527       .  S
C1          C911   1.478       .  S
C2            H9   1.087       .  S
C2            C3   1.364       .  D
C3            C4   1.553       .  S
C3          C907   1.457       .  S
C4            C8   1.556       .  S
C4            C6   1.564       .  S
C4           H10   1.111       .  S
C5           H11   1.087       .  S
C5            C6   1.370       .  D
C6          C390   1.504       .  S
C7           H12   1.087       .  S
C7            C8   1.364       .  D
C8          C909   1.458       .  S
C13          C14   1.535       .  S
C13          C19   1.532       .  S
C13          C17   1.531       .  S
C13         C901   1.488       .  S
C14          H21   1.087       .  S
C14          C15   1.366       .  D
C15          C16   1.551       .  S
C15         C905   1.457       .  S
C16          C20   1.548       .  S
C16          C18   1.557       .  S
C16          H22   1.111       .  S
C17          H23   1.087       .  S
C17          C18   1.372       .  D
C18         C414   1.505       .  S
C19          H24   1.087       .  S
C19          C20   1.368       .  D
C20         C903   1.454       .  S
N25          N26   1.325       .  A
N25          C29   1.347       .  A
N25         Cu33   2.072       .  S
N26          C27   1.355       .  A
N26         Cu32   2.132       .  S
C27          C28   1.392       .  A
C27          H30   1.082       .  S
C28          C29   1.378       .  A
C28         C910   1.455       .  S
C29          H31   1.082       .  S
Cu32         N35   2.132       .  S
Cu33         N43   2.071       .  S
Cu34         N36   2.068       .  S
Cu34         N42   2.067       .  S
N35          N36   1.325       .  A
N35          C39   1.356       .  A
N36          C37   1.345       .  A
C37          C38   1.377       .  A
C37          H40   1.082       .  S
C38          C39   1.393       .  A
C38         C902   1.455       .  S
C39          H41   1.082       .  S
N42          N43   1.321       .  A
N42          C46   1.346       .  A
N43          C44   1.345       .  A
C44          C45   1.381       .  A
C44          H47   1.082       .  S
C45          C46   1.381       .  A
C45         C897   1.438       .  S
C46          H48   1.082       .  S
C49          C50   1.529       .  S
C49          C55   1.530       .  S
C49          C53   1.527       .  S
C49         C891   1.478       .  S
C50          H57   1.087       .  S
C50          C51   1.364       .  D
C51          C52   1.554       .  S
C51         C895   1.458       .  S
C52          C56   1.557       .  S
C52          C54   1.565       .  S
C52          H58   1.111       .  S
C53          H59   1.087       .  S
C53          C54   1.370       .  D
C54         C426   1.505       .  S
C55          H60   1.087       .  S
C55          C56   1.364       .  D
C56         C894   1.459       .  S
N61          N62   1.326       .  A
N61          C65   1.341       .  A
N61         Cu69   2.057       .  S
N62          C63   1.355       .  A
N62         Cu68   2.124       .  S
C63          C64   1.391       .  A
C63          H66   1.082       .  S
C64          C65   1.372       .  A
C64         C892   1.445       .  S
C65          H67   1.082       .  S
Cu68         N71   2.125       .  S
Cu69         N79   2.056       .  S
Cu70         N72   2.059       .  S
Cu70         N78   2.058       .  S
N71          N72   1.325       .  A
N71          C75   1.356       .  A
N72          C73   1.341       .  A
C73          C74   1.373       .  A
C73          H76   1.082       .  S
C74          C75   1.393       .  A
C74         C904   1.448       .  S
C75          H77   1.082       .  S
N78          N79   1.318       .  A
N78          C82   1.343       .  A
N79          C80   1.344       .  A
C80          C81   1.380       .  A
C80          H83   1.082       .  S
C81          C82   1.380       .  A
C81         C890   1.432       .  S
C82          H84   1.082       .  S
N85          N86   1.326       .  A
N85          C89   1.347       .  A
N85         Cu93   2.072       .  S
N86          C87   1.355       .  A
N86         Cu92   2.133       .  S
C87          C88   1.393       .  A
C87          H90   1.082       .  S
C88          C89   1.378       .  A
C88         C893   1.456       .  S
C89          H91   1.082       .  S
Cu92         N95   2.133       .  S
Cu93        N103   2.071       .  S
Cu94         N96   2.067       .  S
Cu94        N102   2.066       .  S
N95          N96   1.325       .  A
N95          C99   1.357       .  A
N96          C97   1.344       .  A
C97          C98   1.376       .  A
C97         H100   1.082       .  S
C98          C99   1.394       .  A
C98         C885   1.455       .  S
C99         H101   1.082       .  S
N102        N103   1.321       .  A
N102        C106   1.345       .  A
N103        C104   1.345       .  A
C104        C105   1.381       .  A
C104        H107   1.082       .  S
C105        C106   1.380       .  A
C105        C881   1.438       .  S
C106        H108   1.082       .  S
C109        C110   1.535       .  S
C109        C115   1.532       .  S
C109        C113   1.531       .  S
C109        C886   1.488       .  S
C110        H117   1.087       .  S
C110        C111   1.366       .  D
C111        C112   1.551       .  S
C111        C879   1.457       .  S
C112        C116   1.548       .  S
C112        C114   1.557       .  S
C112        H118   1.111       .  S
C113        H119   1.087       .  S
C113        C114   1.372       .  D
C114        C582   1.505       .  S
C115        H120   1.087       .  S
C115        C116   1.368       .  D
C116        C877   1.453       .  S
N121        N122   1.326       .  A
N121        C125   1.341       .  A
N121       Cu129   2.058       .  S
N122        C123   1.355       .  A
N122       Cu128   2.123       .  S
C123        C124   1.391       .  A
C123        H126   1.082       .  S
C124        C125   1.372       .  A
C124        C912   1.446       .  S
C125        H127   1.082       .  S
Cu128       N131   2.123       .  S
Cu129       N139   2.058       .  S
Cu130       N132   2.059       .  S
Cu130       N138   2.058       .  S
N131        N132   1.325       .  A
N131        C135   1.356       .  A
N132        C133   1.341       .  A
C133        C134   1.373       .  A
C133        H136   1.082       .  S
C134        C135   1.393       .  A
C134        C878   1.448       .  S
C135        H137   1.082       .  S
N138        N139   1.319       .  A
N138        C142   1.343       .  A
N139        C140   1.344       .  A
C140        C141   1.380       .  A
C140        H143   1.082       .  S
C141        C142   1.379       .  A
C141        C887   1.432       .  S
C142        H144   1.082       .  S
C145        C146   1.532       .  S
C145        C151   1.535       .  S
C145        C149   1.532       .  S
C145        C875   1.488       .  S
C146        H153   1.087       .  S
C146        C147   1.368       .  D
C147        C148   1.548       .  S
C147        C874   1.454       .  S
C148        C152   1.551       .  S
C148        C150   1.557       .  S
C148        H154   1.111       .  S
C149        H155   1.087       .  S
C149        C150   1.373       .  D
C150        C594   1.505       .  S
C151        H156   1.087       .  S
C151        C152   1.365       .  D
C152        C871   1.456       .  S
N157        N158   1.325       .  A
N157        C161   1.346       .  A
N157       Cu165   2.071       .  S
N158        C159   1.354       .  A
N158       Cu164   2.123       .  S
C159        C160   1.391       .  A
C159        H162   1.082       .  S
C160        C161   1.378       .  A
C160        C872   1.452       .  S
C161        H163   1.082       .  S
Cu164       N167   2.123       .  S
Cu165       N175   2.070       .  S
Cu166       N168   2.071       .  S
Cu166       N174   2.070       .  S
N167        N168   1.325       .  A
N167        C171   1.354       .  A
N168        C169   1.346       .  A
C169        C170   1.378       .  A
C169        H172   1.082       .  S
C170        C171   1.391       .  A
C170        C880   1.452       .  S
C171        H173   1.082       .  S
N174        N175   1.321       .  A
N174        C178   1.345       .  A
N175        C176   1.345       .  A
C176        C177   1.380       .  A
C176        H179   1.082       .  S
C177        C178   1.380       .  A
C177        C870   1.437       .  S
C178        H180   1.082       .  S
N181        N182   1.325       .  A
N181        C185   1.341       .  A
N181       Cu189   2.058       .  S
N182        C183   1.357       .  A
N182       Cu188   2.124       .  S
C183        C184   1.393       .  A
C183        H186   1.082       .  S
C184        C185   1.373       .  A
C184        C873   1.449       .  S
C185        H187   1.082       .  S
Cu188       N191   2.124       .  S
Cu189       N199   2.058       .  S
Cu190       N192   2.060       .  S
Cu190       N198   2.059       .  S
N191        N192   1.326       .  A
N191        C195   1.355       .  A
N192        C193   1.342       .  A
C193        C194   1.373       .  A
C193        H196   1.082       .  S
C194        C195   1.391       .  A
C194        C866   1.446       .  S
C195        H197   1.082       .  S
N198        N199   1.319       .  A
N198        C202   1.344       .  A
N199        C200   1.343       .  A
C200        C201   1.379       .  A
C200        H203   1.082       .  S
C201        C202   1.380       .  A
C201        C861   1.432       .  S
C202        H204   1.082       .  S
C205        C206   1.530       .  S
C205        C211   1.530       .  S
C205        C209   1.527       .  S
C205        C865   1.479       .  S
C206        H213   1.087       .  S
C206        C207   1.364       .  D
C207        C208   1.556       .  S
C207        C859   1.458       .  S
C208        C212   1.554       .  S
C208        C210   1.565       .  S
C208        H214   1.111       .  S
C209        H215   1.087       .  S
C209        C210   1.370       .  D
C210        C402   1.505       .  S
C211        H216   1.087       .  S
C211        C212   1.365       .  D
C212        C858   1.458       .  S
N217        N218   1.326       .  A
N217        C221   1.342       .  A
N217       Cu225   2.064       .  S
N218        C219   1.358       .  A
N218       Cu224   2.138       .  S
C219        C220   1.395       .  A
C219        H222   1.082       .  S
C220        C221   1.374       .  A
C220        C908   1.453       .  S
C221        H223   1.082       .  S
Cu224       N227   2.138       .  S
Cu225       N235   2.063       .  S
Cu226       N228   2.063       .  S
Cu226       N234   2.062       .  S
N227        N228   1.326       .  A
N227        C231   1.359       .  A
N228        C229   1.342       .  A
C229        C230   1.374       .  A
C229        H232   1.082       .  S
C230        C231   1.395       .  A
C230        C857   1.454       .  S
C231        H233   1.082       .  S
N234        N235   1.319       .  A
N234        C238   1.345       .  A
N235        C236   1.345       .  A
C236        C237   1.381       .  A
C236        H239   1.082       .  S
C237        C238   1.381       .  A
C237        C867   1.437       .  S
C238        H240   1.082       .  S
C241        C242   1.530       .  S
C241        C247   1.530       .  S
C241        C245   1.527       .  S
C241        C855   1.479       .  S
C242        H249   1.087       .  S
C242        C243   1.364       .  D
C243        C244   1.556       .  S
C243        C853   1.458       .  S
C244        C248   1.553       .  S
C244        C246   1.564       .  S
C244        H250   1.111       .  S
C245        H251   1.087       .  S
C245        C246   1.370       .  D
C246        C498   1.505       .  S
C247        H252   1.087       .  S
C247        C248   1.364       .  D
C248        C851   1.458       .  S
N253        N254   1.325       .  A
N253        C257   1.341       .  A
N253       Cu261   2.059       .  S
N254        C255   1.356       .  A
N254       Cu260   2.124       .  S
C255        C256   1.393       .  A
C255        H258   1.082       .  S
C256        C257   1.373       .  A
C256        C849   1.448       .  S
C257        H259   1.082       .  S
Cu260       N263   2.124       .  S
Cu261       N271   2.058       .  S
Cu262       N264   2.058       .  S
Cu262       N270   2.058       .  S
N263        N264   1.326       .  A
N263        C267   1.355       .  A
N264        C265   1.341       .  A
C265        C266   1.372       .  A
C265        H268   1.082       .  S
C266        C267   1.391       .  A
C266        C856   1.446       .  S
C267        H269   1.082       .  S
N270        N271   1.319       .  A
N270        C274   1.344       .  A
N271        C272   1.344       .  A
C272        C273   1.380       .  A
C272        H275   1.082       .  S
C273        C274   1.380       .  A
C273        C864   1.432       .  S
C274        H276   1.082       .  S
N277        N278   1.326       .  A
N277        C281   1.347       .  A
N277       Cu285   2.072       .  S
N278        C279   1.355       .  A
N278       Cu284   2.133       .  S
C279        C280   1.392       .  A
C279        H282   1.082       .  S
C280        C281   1.378       .  A
C280        C854   1.456       .  S
C281        H283   1.082       .  S
Cu284       N287   2.133       .  S
Cu285       N295   2.071       .  S
Cu286       N288   2.067       .  S
Cu286       N294   2.066       .  S
N287        N288   1.325       .  A
N287        C291   1.357       .  A
N288        C289   1.345       .  A
C289        C290   1.377       .  A
C289        H292   1.082       .  S
C290        C291   1.393       .  A
C290        C876   1.455       .  S
C291        H293   1.082       .  S
N294        N295   1.321       .  A
N294        C298   1.345       .  A
N295        C296   1.345       .  A
C296        C297   1.381       .  A
C296        H299   1.082       .  S
C297        C298   1.380       .  A
C297        C884   1.438       .  S
C298        H300   1.082       .  S
N301        N302   1.326       .  A
N301        C305   1.342       .  A
N301       Cu309   2.064       .  S
N302        C303   1.358       .  A
N302       Cu308   2.137       .  S
C303        C304   1.395       .  A
C303        H306   1.082       .  S
C304        C305   1.374       .  A
C304        C896   1.454       .  S
C305        H307   1.082       .  S
Cu308       N311   2.137       .  S
Cu309       N319   2.063       .  S
Cu310       N312   2.065       .  S
Cu310       N318   2.064       .  S
N311        N312   1.326       .  A
N311        C315   1.358       .  A
N312        C313   1.342       .  A
C313        C314   1.374       .  A
C313        H316   1.082       .  S
C314        C315   1.395       .  A
C314        C852   1.453       .  S
C315        H317   1.082       .  S
N318        N319   1.319       .  A
N318        C322   1.345       .  A
N319        C320   1.345       .  A
C320        C321   1.381       .  A
C320        H323   1.082       .  S
C321        C322   1.381       .  A
C321        C848   1.437       .  S
C322        H324   1.082       .  S
C325        C326   1.532       .  S
C325        C331   1.535       .  S
C325        C329   1.532       .  S
C325        C842   1.489       .  S
C326        H333   1.087       .  S
C326        C327   1.368       .  D
C327        C328   1.548       .  S
C327        C850   1.453       .  S
C328        C332   1.551       .  S
C328        C330   1.557       .  S
C328        H334   1.111       .  S
C329        H335   1.087       .  S
C329        C330   1.372       .  D
C330        C462   1.505       .  S
C331        H336   1.087       .  S
C331        C332   1.366       .  D
C332        C843   1.457       .  S
N337        N338   1.325       .  A
N337        C341   1.345       .  A
N337       Cu345   2.067       .  S
N338        C339   1.357       .  A
N338       Cu344   2.133       .  S
C339        C340   1.394       .  A
C339        H342   1.082       .  S
C340        C341   1.377       .  A
C340        C841   1.455       .  S
C341        H343   1.082       .  S
Cu344       N347   2.133       .  S
Cu345       N355   2.066       .  S
Cu346       N348   2.072       .  S
Cu346       N354   2.071       .  S
N347        N348   1.326       .  A
N347        C351   1.355       .  A
N348        C349   1.347       .  A
C349        C350   1.378       .  A
C349        H352   1.082       .  S
C350        C351   1.393       .  A
C350        C860   1.456       .  S
C351        H353   1.082       .  S
N354        N355   1.321       .  A
N354        C358   1.345       .  A
N355        C356   1.345       .  A
C356        C357   1.380       .  A
C356        H359   1.082       .  S
C357        C358   1.381       .  A
C357        C900   1.438       .  S
C358        H360   1.082       .  S
N361        N362   1.325       .  A
N361        C365   1.346       .  A
N361       Cu369   2.072       .  S
N362        C363   1.354       .  A
N362       Cu368   2.122       .  S
C363        C364   1.391       .  A
C363        H366   1.082       .  S
C364        C365   1.378       .  A
C364        C844   1.453       .  S
C365        H367   1.082       .  S
Cu368       N371   2.122       .  S
Cu369       N379   2.071       .  S
Cu370       N372   2.072       .  S
Cu370       N378   2.071       .  S
N371        N372   1.325       .  A
N371        C375   1.354       .  A
N372        C373   1.346       .  A
C373        C374   1.378       .  A
C373        H376   1.082       .  S
C374        C375   1.391       .  A
C374        C906   1.453       .  S
C375        H377   1.082       .  S
N378        N379   1.321       .  A
N378        C382   1.346       .  A
N379        C380   1.346       .  A
C380        C381   1.380       .  A
C380        H383   1.082       .  S
C381        C382   1.380       .  A
C381        C845   1.438       .  S
C382        H384   1.082       .  S
C385        C386   1.535       .  S
C385        C391   1.532       .  S
C385        C389   1.532       .  S
C385        C838   1.488       .  S
C386        H393   1.087       .  S
C386        C387   1.366       .  D
C387        C388   1.551       .  S
C387        C835   1.457       .  S
C388        C392   1.548       .  S
C388        C390   1.557       .  S
C388        H394   1.111       .  S
C389        H395   1.087       .  S
C389        C390   1.372       .  D
C391        H396   1.087       .  S
C391        C392   1.368       .  D
C392        C839   1.453       .  S
C397        C398   1.532       .  S
C397        C403   1.535       .  S
C397        C401   1.532       .  S
C397        C832   1.489       .  S
C398        H405   1.087       .  S
C398        C399   1.368       .  D
C399        C400   1.548       .  S
C399        C834   1.454       .  S
C400        C404   1.551       .  S
C400        C402   1.557       .  S
C400        H406   1.111       .  S
C401        H407   1.087       .  S
C401        C402   1.372       .  D
C403        H408   1.087       .  S
C403        C404   1.366       .  D
C404        C829   1.457       .  S
C409        C410   1.530       .  S
C409        C415   1.530       .  S
C409        C413   1.526       .  S
C409        C825   1.478       .  S
C410        H417   1.087       .  S
C410        C411   1.365       .  D
C411        C412   1.553       .  S
C411        C828   1.458       .  S
C412        C416   1.557       .  S
C412        C414   1.565       .  S
C412        H418   1.111       .  S
C413        H419   1.087       .  S
C413        C414   1.370       .  D
C415        H420   1.087       .  S
C415        C416   1.364       .  D
C416        C823   1.459       .  S
C421        C422   1.535       .  S
C421        C427   1.532       .  S
C421        C425   1.531       .  S
C421        C819   1.488       .  S
C422        H429   1.087       .  S
C422        C423   1.366       .  D
C423        C424   1.552       .  S
C423        C821   1.458       .  S
C424        C428   1.548       .  S
C424        C426   1.557       .  S
C424        H430   1.111       .  S
C425        H431   1.087       .  S
C425        C426   1.372       .  D
C427        H432   1.087       .  S
C427        C428   1.368       .  D
C428        C817   1.454       .  S
N433        N434   1.326       .  A
N433        C437   1.341       .  A
N433       Cu441   2.058       .  S
N434        C435   1.355       .  A
N434       Cu440   2.124       .  S
C435        C436   1.391       .  A
C435        H438   1.082       .  S
C436        C437   1.372       .  A
C436        C826   1.445       .  S
C437        H439   1.082       .  S
Cu440       N443   2.124   1_455  S
Cu441       N451   2.057       .  S
Cu442       N444   2.058       .  S
Cu442       N450   2.057       .  S
N443        N444   1.325       .  A
N443        C447   1.356       .  A
N444        C445   1.341       .  A
C445        C446   1.373       .  A
C445        H448   1.082       .  S
C446        C447   1.393       .  A
C446        C818   1.448       .  S
C447        H449   1.082       .  S
N450        N451   1.319   1_655  A
N450        C454   1.343       .  A
N451        C452   1.344       .  A
C452        C453   1.380       .  A
C452        H455   1.082       .  S
C453        C454   1.379   1_455  A
C453        C813   1.431   1_565  S
C454        H456   1.082       .  S
C457        C458   1.530       .  S
C457        C463   1.530       .  S
C457        C461   1.526       .  S
C457        C811   1.478       .  S
C458        H465   1.087       .  S
C458        C459   1.364       .  D
C459        C460   1.557       .  S
C459        C807   1.459       .  S
C460        C464   1.554       .  S
C460        C462   1.565       .  S
C460        H466   1.111       .  S
C461        H467   1.087       .  S
C461        C462   1.370       .  D
C463        H468   1.087       .  S
C463        C464   1.365       .  D
C464        C810   1.458       .  S
N469        N470   1.325       .  A
N469        C473   1.345       .  A
N469       Cu477   2.067       .  S
N470        C471   1.357       .  A
N470       Cu476   2.134       .  S
C471        C472   1.394       .  A
C471        H474   1.082       .  S
C472        C473   1.377       .  A
C472        C831   1.456       .  S
C473        H475   1.082       .  S
Cu476       N479   2.134       .  S
Cu477       N487   2.066       .  S
Cu478       N480   2.073       .  S
Cu478       N486   2.072       .  S
N479        N480   1.326       .  A
N479        C483   1.355   1_545  A
N480        C481   1.347   1_545  A
C481        C482   1.378       .  A
C481        H484   1.082       .  S
C482        C483   1.393       .  A
C482        C808   1.456       .  S
C483        H485   1.082       .  S
N486        N487   1.321       .  A
N486        C490   1.345       .  A
N487        C488   1.345       .  A
C488        C489   1.380       .  A
C488        H491   1.082       .  S
C489        C490   1.381       .  A
C489        C806   1.438       .  S
C490        H492   1.082       .  S
C493        C494   1.532       .  S
C493        C499   1.535       .  S
C493        C497   1.531       .  S
C493        C801   1.488       .  S
C494        H501   1.087       .  S
C494        C495   1.368       .  D
C495        C496   1.548       .  S
C495        C800   1.454       .  S
C496        C500   1.551       .  S
C496        C498   1.557       .  S
C496        H502   1.111       .  S
C497        H503   1.087       .  S
C497        C498   1.372       .  D
C499        H504   1.087       .  S
C499        C500   1.366       .  D
C500        C797   1.457       .  S
N505        N506   1.326       .  A
N505        C509   1.347       .  A
N505       Cu513   2.072       .  S
N506        C507   1.355       .  A
N506       Cu512   2.134       .  S
C507        C508   1.393       .  A
C507        H510   1.082       .  S
C508        C509   1.378       .  A
C508        C796   1.456       .  S
C509        H511   1.082       .  S
Cu512       N515   2.133       .  S
Cu513       N523   2.071       .  S
Cu514       N516   2.067       .  S
Cu514       N522   2.066       .  S
N515        N516   1.325       .  A
N515        C519   1.357       .  A
N516        C517   1.344   1_545  A
C517        C518   1.376       .  A
C517        H520   1.082       .  S
C518        C519   1.394   1_565  A
C518        C802   1.455       .  S
C519        H521   1.082       .  S
N522        N523   1.321       .  A
N522        C526   1.346       .  A
N523        C524   1.345       .  A
C524        C525   1.381       .  A
C524        H527   1.082       .  S
C525        C526   1.381       .  A
C525        C794   1.438       .  S
C526        H528   1.082       .  S
N529        N530   1.326       .  A
N529        C533   1.341       .  A
N529       Cu537   2.058       .  S
N530        C531   1.355       .  A
N530       Cu536   2.124       .  S
C531        C532   1.391       .  A
C531        H534   1.082       .  S
C532        C533   1.372       .  A
C532        C812   1.445       .  S
C533        H535   1.082       .  S
Cu536       N539   2.124   1_455  S
Cu537       N547   2.057       .  S
Cu538       N540   2.059       .  S
Cu538       N546   2.058       .  S
N539        N540   1.325       .  A
N539        C543   1.356       .  A
N540        C541   1.341       .  A
C541        C542   1.373       .  A
C541        H544   1.082       .  S
C542        C543   1.393       .  A
C542        C799   1.448       .  S
C543        H545   1.082       .  S
N546        N547   1.319   1_655  A
N546        C550   1.343       .  A
N547        C548   1.344       .  A
C548        C549   1.380       .  A
C548        H551   1.082       .  S
C549        C550   1.379   1_455  A
C549        C787   1.432   1_565  S
C550        H552   1.082       .  S
N553        N554   1.325       .  A
N553        C557   1.346       .  A
N553       Cu561   2.072       .  S
N554        C555   1.354       .  A
N554       Cu560   2.123   1_556  S
C555        C556   1.391       .  A
C555        H558   1.082       .  S
C556        C557   1.378       .  A
C556        C798   1.453       .  S
C557        H559   1.082       .  S
Cu560       N563   2.123       .  S
Cu561       N571   2.071   1_556  S
Cu562       N564   2.073       .  S
Cu562       N570   2.071       .  S
N563        N564   1.325       .  A
N563        C567   1.354       .  A
N564        C565   1.346       .  A
C565        C566   1.378       .  A
C565        H568   1.082       .  S
C566        C567   1.391       .  A
C566        C822   1.453       .  S
C567        H569   1.082       .  S
N570        N571   1.321       .  A
N570        C574   1.346       .  A
N571        C572   1.345       .  A
C572        C573   1.380       .  A
C572        H575   1.082   1_554  S
C573        C574   1.380       .  A
C573        C783   1.438       .  S
C574        H576   1.082       .  S
C577        C578   1.529       .  S
C577        C583   1.530       .  S
C577        C581   1.526       .  S
C577        C777   1.478       .  S
C578        H585   1.087       .  S
C578        C579   1.364       .  D
C579        C580   1.553       .  S
C579        C779   1.457       .  S
C580        C584   1.557       .  S
C580        C582   1.565       .  S
C580        H586   1.111       .  S
C581        H587   1.087       .  S
C581        C582   1.370       .  D
C583        H588   1.087       .  S
C583        C584   1.364       .  D
C584        C781   1.459       .  S
C589        C590   1.530       .  S
C589        C595   1.530       .  S
C589        C593   1.527       .  S
C589        C775   1.479       .  S
C590        H597   1.087       .  S
C590        C591   1.364       .  D
C591        C592   1.557       .  S
C591        C795   1.459       .  S
C592        C596   1.553       .  S
C592        C594   1.565       .  S
C592        H598   1.111       .  S
C593        H599   1.087       .  S
C593        C594   1.370       .  D
C595        H600   1.087       .  S
C595        C596   1.365       .  D
C596        C773   1.458       .  S
N601        N602   1.326       .  A
N601        C605   1.342       .  A
N601       Cu609   2.064       .  S
N602        C603   1.358       .  A
N602       Cu608   2.137       .  S
C603        C604   1.395       .  A
C603        H606   1.082       .  S
C604        C605   1.374       .  A
C604        C780   1.453       .  S
C605        H607   1.082       .  S
Cu608       N611   2.137   1_554  S
Cu609       N619   2.063       .  S
Cu610       N612   2.064       .  S
Cu610       N618   2.063   1_556  S
N611        N612   1.326       .  A
N611        C615   1.358       .  A
N612        C613   1.342       .  A
C613        C614   1.374       .  A
C613        H616   1.082       .  S
C614        C615   1.395       .  A
C614        C774   1.453       .  S
C615        H617   1.082       .  S
N618        N619   1.319       .  A
N618        C622   1.345       .  A
N619        C620   1.345       .  A
C620        C621   1.381       .  A
C620        H623   1.082       .  S
C621        C622   1.381       .  A
C621        C769   1.437       .  S
C622        H624   1.082   1_554  S
N625        N626   1.325       .  A
N625        C629   1.341       .  A
N625       Cu633   2.057       .  S
N626        C627   1.355       .  A
N626       Cu632   2.123       .  S
C627        C628   1.391       .  A
C627        H630   1.082       .  S
C628        C629   1.372       .  A
C628        C778   1.445       .  S
C629        H631   1.082       .  S
Cu632       N635   2.123   1_655  S
Cu633       N643   2.056       .  S
Cu634       N636   2.059       .  S
Cu634       N642   2.058       .  S
N635        N636   1.325       .  A
N635        C639   1.356       .  A
N636        C637   1.341       .  A
C637        C638   1.373       .  A
C637        H640   1.082       .  S
C638        C639   1.393       .  A
C638        C840   1.448       .  S
C639        H641   1.082       .  S
N642        N643   1.318   1_455  A
N642        C646   1.343       .  A
N643        C644   1.344       .  A
C644        C645   1.380       .  A
C644        H647   1.082       .  S
C645        C646   1.379   1_655  A
C645        C816   1.431       .  S
C646        H648   1.082       .  S
N649        N650   1.325       .  A
N649        C653   1.341       .  A
N649       Cu657   2.059       .  S
N650        C651   1.356       .  A
N650       Cu656   2.124   1_455  S
C651        C652   1.393       .  A
C651        H654   1.082       .  S
C652        C653   1.373       .  A
C652        C833   1.448       .  S
C653        H655   1.082       .  S
Cu656       N659   2.124       .  S
Cu657       N667   2.058       .  S
Cu658       N660   2.059       .  S
Cu658       N666   2.058       .  S
N659        N660   1.326       .  A
N659        C663   1.355       .  A
N660        C661   1.341       .  A
C661        C662   1.372       .  A
C661        H664   1.082       .  S
C662        C663   1.391       .  A
C662        C776   1.446       .  S
C663        H665   1.082       .  S
N666        N667   1.319   1_655  A
N666        C670   1.344       .  A
N667        C668   1.344       .  A
C668        C669   1.379   1_455  A
C668        H671   1.082       .  S
C669        C670   1.380       .  A
C669        C790   1.432       .  S
C670        H672   1.082       .  S
N673        N674   1.325       .  A
N673        C677   1.345       .  A
N673       Cu681   2.067       .  S
N674        C675   1.357       .  A
N674       Cu680   2.134       .  S
C675        C676   1.394       .  A
C675        H678   1.082       .  S
C676        C677   1.376       .  A
C676        C837   1.455       .  S
C677        H679   1.082       .  S
Cu680       N683   2.134       .  S
Cu681       N691   2.066       .  S
Cu682       N684   2.072       .  S
Cu682       N690   2.071       .  S
N683        N684   1.326       .  A
N683        C687   1.355   1_545  A
N684        C685   1.347   1_545  A
C685        C686   1.378       .  A
C685        H688   1.082       .  S
C686        C687   1.393       .  A
C686        C824   1.456       .  S
C687        H689   1.082       .  S
N690        N691   1.321       .  A
N690        C694   1.345       .  A
N691        C692   1.346       .  A
C692        C693   1.381       .  A
C692        H695   1.082       .  S
C693        C694   1.381       .  A
C693        C803   1.438       .  S
C694        H696   1.082       .  S
N697        N698   1.326       .  A
N697        C701   1.347       .  A
N697       Cu705   2.073       .  S
N698        C699   1.355       .  A
N698       Cu704   2.134       .  S
C699        C700   1.393       .  A
C699        H702   1.082       .  S
C700        C701   1.378       .  A
C700        C782   1.456       .  S
C701        H703   1.082       .  S
Cu704       N707   2.133       .  S
Cu705       N715   2.072       .  S
Cu706       N708   2.067       .  S
Cu706       N714   2.066       .  S
N707        N708   1.325       .  A
N707        C711   1.357       .  A
N708        C709   1.345   1_545  A
C709        C710   1.377       .  A
C709        H712   1.082       .  S
C710        C711   1.394   1_565  A
C710        C820   1.455       .  S
C711        H713   1.082       .  S
N714        N715   1.321       .  A
N714        C718   1.345       .  A
N715        C716   1.345       .  A
C716        C717   1.381       .  A
C716        H719   1.082       .  S
C717        C718   1.380       .  A
C717        C791   1.438       .  S
C718        H720   1.082       .  S
N721        N722   1.325       .  A
N721        C725   1.346       .  A
N721       Cu729   2.072       .  S
N722        C723   1.354       .  A
N722       Cu728   2.123   1_556  S
C723        C724   1.391       .  A
C723        H726   1.082       .  S
C724        C725   1.378       .  A
C724        C830   1.453       .  S
C725        H727   1.082       .  S
Cu728       N731   2.123       .  S
Cu729       N739   2.071   1_556  S
Cu730       N732   2.072       .  S
Cu730       N738   2.071       .  S
N731        N732   1.325       .  A
N731        C735   1.354       .  A
N732        C733   1.346       .  A
C733        C734   1.378       .  A
C733        H736   1.082       .  S
C734        C735   1.391       .  A
C734        C836   1.453       .  S
C735        H737   1.082       .  S
N738        N739   1.321       .  A
N738        C742   1.345       .  A
N739        C740   1.346       .  A
C740        C741   1.380       .  A
C740        H743   1.082   1_554  S
C741        C742   1.380       .  A
C741        C772   1.438       .  S
C742        H744   1.082       .  S
N745        N746   1.326       .  A
N745        C749   1.342       .  A
N745       Cu753   2.063       .  S
N746        C747   1.359       .  A
N746       Cu752   2.138   1_556  S
C747        C748   1.395       .  A
C747        H750   1.082       .  S
C748        C749   1.374       .  A
C748        C809   1.454       .  S
C749        H751   1.082       .  S
Cu752       N755   2.138       .  S
Cu753       N763   2.062   1_556  S
Cu754       N756   2.064       .  S
Cu754       N762   2.063       .  S
N755        N756   1.326       .  A
N755        C759   1.358       .  A
N756        C757   1.342       .  A
C757        C758   1.374       .  A
C757        H760   1.082       .  S
C758        C759   1.395       .  A
C758        C827   1.454       .  S
C759        H761   1.082       .  S
N762        N763   1.319       .  A
N762        C766   1.345       .  A
N763        C764   1.345       .  A
C764        C765   1.381       .  A
C764        H767   1.082   1_554  S
C765        C766   1.381       .  A
C765        C786   1.437       .  S
C766        H768   1.082       .  S
C769        C770   1.206       .  T
C770        C771   1.412       .  S
C771        C772   1.206   1_655  T
C773        C774   1.216       .  T
C775        C776   1.212       .  T
C777        C778   1.211       .  T
C779        C780   1.216       .  T
C781        C782   1.217       .  T
C783        C784   1.206   1_655  T
C784        C785   1.412       .  S
C785        C786   1.206       .  T
C787        C788   1.202       .  T
C788        C789   1.406   1_455  S
C789        C790   1.202       .  T
C791        C792   1.206       .  T
C792        C793   1.413       .  S
C793        C794   1.206   1_554  T
C795        C796   1.217       .  T
C797        C798   1.215       .  T
C799        C800   1.213       .  T
C801        C802   1.217       .  T
C803        C804   1.206       .  T
C804        C805   1.413       .  S
C805        C806   1.206   1_554  T
C807        C808   1.217       .  T
C809        C810   1.216       .  T
C811        C812   1.211       .  T
C813        C814   1.202       .  T
C814        C815   1.406   1_455  S
C815        C816   1.202       .  T
C817        C818   1.213       .  T
C819        C820   1.217       .  T
C821        C822   1.216       .  T
C823        C824   1.217       .  T
C825        C826   1.211       .  T
C827        C828   1.216       .  T
C829        C830   1.215       .  T
C831        C832   1.218       .  T
C833        C834   1.213       .  T
C835        C836   1.215       .  T
C837        C838   1.217       .  T
C839        C840   1.213       .  T
C841        C842   1.217       .  T
C843        C844   1.215       .  T
C845        C846   1.206       .  T
C846        C847   1.413       .  S
C847        C848   1.206       .  T
C849        C850   1.213       .  T
C851        C852   1.216       .  T
C853        C854   1.217       .  T
C855        C856   1.212       .  T
C857        C858   1.216       .  T
C859        C860   1.217       .  T
C861        C862   1.202       .  T
C862        C863   1.407       .  S
C863        C864   1.202       .  T
C865        C866   1.212       .  T
C867        C868   1.206       .  T
C868        C869   1.412       .  S
C869        C870   1.206       .  T
C871        C872   1.215       .  T
C873        C874   1.213       .  T
C875        C876   1.217       .  T
C877        C878   1.213       .  T
C879        C880   1.215       .  T
C881        C882   1.206       .  T
C882        C883   1.413       .  S
C883        C884   1.206       .  T
C885        C886   1.217       .  T
C887        C888   1.202       .  T
C888        C889   1.406       .  S
C889        C890   1.202       .  T
C891        C892   1.212       .  T
C893        C894   1.217       .  T
C895        C896   1.216       .  T
C897        C898   1.206       .  T
C898        C899   1.413       .  S
C899        C900   1.206       .  T
C901        C902   1.217       .  T
C903        C904   1.213       .  T
C905        C906   1.215       .  T
C907        C908   1.216       .  T
C909        C910   1.217       .  T
C911        C912   1.212       .  T
