geometry optimzed in LAMMPS
_audit_creation_date              2020-12-01 
_audit_creation_method            'lammps2cif' 
_symmetry_space_group_name_H-M    'P1' 
_symmetry_Int_Tables_number       1 
_symmetry_cell_setting            triclinic 
loop_ 
_symmetry_equiv_pos_as_xyz 
  x,y,z 
_cell_length_a                    44.76373126 
_cell_length_b                    44.77284136531751 
_cell_length_c                    44.7769349803034 
_cell_angle_alpha                 90.01808078920125 
_cell_angle_beta                  90.14384080215098 
_cell_angle_gamma                 90.02506812248606 
loop_ 
_atom_site_label 
_atom_site_type_symbol 
_atom_site_fract_x 
_atom_site_fract_y 
_atom_site_fract_z 
_atom_site_charge 
N1          N  0.22513280  0.79021535  0.45137141    -0.27400
N2          N  0.21314310  0.81454236  0.43959421    -0.35300
C3          C  0.21351387  0.81309605  0.40971908     0.00900
C4          C  0.22634745  0.78652798  0.40077118     0.06900
C5          C  0.23360817  0.77246427  0.42807327    -0.06200
H6          H  0.20430961  0.83041627  0.39567703     0.07600
H7          H  0.24395037  0.75079544  0.43068386     0.08800
Cu8        Cu  0.19366007  0.84949481  0.46181914     0.44200
Cu9        Cu  0.22705579  0.78452300  0.49973116     0.42000
Cu10       Cu  0.18458501  0.84531748  0.53723092     0.43900
N11         N  0.16888252  0.88093545  0.48397124    -0.34800
N12         N  0.16520167  0.87928469  0.51309542    -0.29100
C13         C  0.14518810  0.89991320  0.52163196    -0.05200
C14         C  0.13598219  0.91514502  0.49644568     0.07000
C15         C  0.15124340  0.90253776  0.47288907     0.00800
H16         H  0.13633384  0.90203526  0.54399864     0.08500
H17         H  0.14805691  0.90704069  0.44935372     0.07600
N18         N  0.20589030  0.81124214  0.55959353    -0.36300
N19         N  0.22183363  0.78921312  0.54794870    -0.28500
C20         C  0.23272416  0.77288357  0.57129827    -0.03700
C21         C  0.22313270  0.78551338  0.59849563     0.04900
C22         C  0.20608134  0.80959278  0.58949350     0.03000
H23         H  0.24694853  0.75352489  0.56880284     0.08100
H24         H  0.19447816  0.82533363  0.60360170     0.06900
N25         N  0.79675035  0.19494496  0.54570791    -0.27400
N26         N  0.80727379  0.16981529  0.55725854    -0.35300
C27         C  0.80606346  0.17065816  0.58711629     0.00900
C28         C  0.79433629  0.19763566  0.59621916     0.06900
C29         C  0.78845387  0.21258471  0.56911629    -0.06200
H30         H  0.81360621  0.15247753  0.60107865     0.07600
H31         H  0.77918228  0.23475622  0.56671280     0.08800
Cu32       Cu  0.82586710  0.13418107  0.53528816     0.44200
Cu33       Cu  0.79568099  0.20205794  0.49763382     0.42000
Cu34       Cu  0.83387866  0.13899096  0.46076384     0.43900
N35         N  0.84989425  0.10236454  0.51275878    -0.34800
N36         N  0.85302949  0.10443748  0.48362306    -0.29100
C37         C  0.87182202  0.08315236  0.47410496    -0.05200
C38         C  0.88076029  0.06690191  0.49868538     0.07000
C39         C  0.86672133  0.07968516  0.52294663     0.00800
H40         H  0.87964925  0.08082817  0.45138007     0.08500
H41         H  0.86979978  0.07410609  0.54626258     0.07600
N42         N  0.81460799  0.17369531  0.43825787    -0.36300
N43         N  0.80039725  0.19700550  0.44954614    -0.28500
C44         C  0.79072396  0.21367610  0.42592141    -0.03700
C45         C  0.79942477  0.19985207  0.39898003     0.04900
C46         C  0.81449075  0.17470855  0.40841126     0.03000
H47         H  0.77801353  0.23409007  0.42807327     0.08100
H48         H  0.82457046  0.15759795  0.39475279     0.06900
N49         N  0.80924677  0.76890758  0.45023901    -0.27400
N50         N  0.83430264  0.77927640  0.43850563    -0.35300
C51         C  0.83260636  0.77932163  0.40865510     0.00900
C52         C  0.80510846  0.76855486  0.39978622     0.06900
C53         C  0.79077748  0.76186928  0.42698814    -0.06200
H54         H  0.85055741  0.78701987  0.39452008     0.07600
H55         H  0.76843891  0.75306405  0.42957375     0.08800
Cu56       Cu  0.87064498  0.79626247  0.46068073     0.44200
Cu57       Cu  0.80363307  0.76691930  0.49836305     0.42000
Cu58       Cu  0.86957248  0.80168021  0.53606027     0.43900
N59         N  0.90256111  0.82087626  0.48251235    -0.34800
N60         N  0.90211030  0.82318836  0.51182089    -0.29100
C61         C  0.92177748  0.84421500  0.52039438    -0.05200
C62         C  0.93516556  0.85549906  0.49502762     0.07000
C63         C  0.92244861  0.84036173  0.47135119     0.00800
H64         H  0.92425046  0.85239046  0.54301277     0.08500
H65         H  0.92547107  0.84492904  0.44782083     0.07600
N66         N  0.83358142  0.78355919  0.55813545    -0.36300
N67         N  0.80944583  0.77100101  0.54637333    -0.28500
C68         C  0.79143448  0.76298749  0.56954749    -0.03700
C69         C  0.80496517  0.77133928  0.59671059     0.04900
C70         C  0.83160361  0.78407830  0.58798898     0.03000
H71         H  0.76991771  0.75228882  0.56692255     0.08100
H72         H  0.84884561  0.79312382  0.60232181     0.06900
N73         N  0.55537154  0.76976628  0.19990939    -0.27400
N74         N  0.56672749  0.78153755  0.17530374    -0.35300
C75         C  0.59660711  0.78140306  0.17643869     0.00900
C76         C  0.60602077  0.76905622  0.20307517     0.06900
C77         C  0.57899087  0.76164237  0.21749318    -0.06200
H78         H  0.61033942  0.79038756  0.15878843     0.07600
H79         H  0.57678235  0.75167457  0.23937321     0.08800
Cu80       Cu  0.54425612  0.80127990  0.14056258     0.44200
Cu81       Cu  0.50712845  0.76795104  0.20636181     0.42000
Cu82       Cu  0.47037659  0.81487702  0.14883712     0.43900
N83         N  0.52238653  0.82884275  0.11118546    -0.34800
N84         N  0.49376291  0.83450927  0.11475987    -0.29100
C85         C  0.48539250  0.85598613  0.09557636    -0.05200
C86         C  0.51017644  0.86408323  0.07921871     0.07000
C87         C  0.53335063  0.84663118  0.08967556     0.00800
H88         H  0.46353839  0.86630421  0.09506356     0.08500
H89         H  0.55671286  0.84827043  0.08374445     0.07600
N90         N  0.44768170  0.79204751  0.18136853    -0.36300
N91         N  0.45899115  0.77425964  0.20214743    -0.28500
C92         C  0.43540316  0.76285260  0.21767515    -0.03700
C93         C  0.40846887  0.77438775  0.20602820     0.04900
C94         C  0.41780859  0.79265040  0.18308401     0.03000
H95         H  0.43756927  0.74737724  0.23609770     0.08100
H96         H  0.40391237  0.80522704  0.16784459     0.06900
N97         N  0.79466288  0.53866058  0.19612623    -0.27400
N98         N  0.80666497  0.55041164  0.17180461    -0.35300
C99         C  0.80625347  0.58031304  0.17342752     0.00900
C100        C  0.79344865  0.58911526  0.20007185     0.06900
C101        C  0.78619483  0.56183202  0.21397549    -0.06200
H102        H  0.81476510  0.59453578  0.15591404     0.07600
H103        H  0.77567718  0.55912009  0.23551820     0.08800
Cu104      Cu  0.82456151  0.52788547  0.13582868     0.44200
Cu105      Cu  0.79157014  0.49064481  0.20189806     0.42000
Cu106      Cu  0.81891236  0.45204591  0.13402633     0.43900
N107        N  0.84396686  0.50359350  0.10186336    -0.34800
N108        N  0.84134900  0.47430456  0.10102170    -0.29100
C109        C  0.85934938  0.46328200  0.07973744    -0.05200
C110        C  0.87383859  0.48700547  0.06648764     0.07000
C111        C  0.86373675  0.51225584  0.08105046     0.00800
H112        H  0.86361108  0.43976352  0.07615725     0.08500
H113        H  0.87205691  0.53481372  0.07855175     0.07600
N114        N  0.80381066  0.43042065  0.17136741    -0.36300
N115        N  0.79395583  0.44256585  0.19644988    -0.28500
C116        C  0.78728357  0.41966965  0.21533375    -0.03700
C117        C  0.79369505  0.39229012  0.20129204     0.04900
C118        C  0.80396705  0.40058876  0.17351608     0.03000
H119        H  0.77873150  0.42262940  0.23771390     0.08100
H120        H  0.81100605  0.38603177  0.15560521     0.06900
N121        N  0.80586564  0.53914811  0.78683781    -0.27400
N122        N  0.82737214  0.55079292  0.80349065    -0.35300
C123        C  0.82558526  0.58063696  0.80355063     0.00900
C124        C  0.80179837  0.58954531  0.78602094     0.06900
C125        C  0.78967419  0.56238452  0.77566124    -0.06200
H126        H  0.84125694  0.59468437  0.81538499     0.07600
H127        H  0.77063975  0.55980056  0.76097147     0.08800
Cu128      Cu  0.86101127  0.52838778  0.82496994     0.44200
Cu129      Cu  0.80193854  0.49122120  0.78158370     0.42000
Cu130      Cu  0.86834918  0.45347311  0.81496304     0.43900
N131        N  0.89678011  0.50597537  0.84265437    -0.34800
N132        N  0.90000398  0.47703936  0.83852375    -0.29100
C133        C  0.92338386  0.46734722  0.85472676    -0.05200
C134        C  0.93540507  0.49168220  0.86943628     0.07000
C135        C  0.91798705  0.51578885  0.86147643     0.00800
H136        H  0.92965309  0.44415183  0.85735765     0.08500
H137        H  0.91923992  0.53824919  0.87033046     0.07600
N138        N  0.83242308  0.43147422  0.79652909    -0.36300
N139        N  0.80820091  0.44332367  0.78426330    -0.28500
C140        C  0.79030475  0.42024161  0.77564047    -0.03700
C141        C  0.80399680  0.39303086  0.78332232     0.04900
C142        C  0.83058030  0.40160644  0.79635146     0.03000
H143        H  0.76878728  0.42295844  0.76494298     0.08100
H144        H  0.84791679  0.38716108  0.80500092     0.06900
N145        N  0.55891227  0.20606143  0.79659372    -0.27400
N146        N  0.57141289  0.19208190  0.81950945    -0.35300
C147        C  0.60123093  0.19233597  0.81697660     0.00900
C148        C  0.60910650  0.20728715  0.79132838     0.06900
C149        C  0.58157688  0.21606772  0.77890585    -0.06200
H150        H  0.61623121  0.18235404  0.83311234     0.07600
H151        H  0.57838825  0.22821845  0.75827411     0.08800
Cu152      Cu  0.55014737  0.17161215  0.85451904     0.44200
Cu153      Cu  0.51064497  0.20845352  0.79202279     0.42000
Cu154      Cu  0.47402017  0.16467733  0.85219444     0.43900
N155        N  0.52795131  0.14796686  0.88685092    -0.34800
N156        N  0.49867352  0.14504714  0.88589829    -0.29100
C157        C  0.48999121  0.12647882  0.90781368    -0.05200
C158        C  0.51521198  0.11747962  0.92319714     0.07000
C159        C  0.53895411  0.13132857  0.90930681     0.00800
H160        H  0.46729720  0.11888850  0.91123740     0.08500
H161        H  0.56246601  0.12827631  0.91403448     0.07600
N162        N  0.45112071  0.18648601  0.81857069    -0.36300
N163        N  0.46265363  0.20318300  0.79704065    -0.28500
C164        C  0.43931351  0.21459939  0.78109038    -0.03700
C165        C  0.41222638  0.20417967  0.79312893     0.04900
C166        C  0.42118229  0.18651635  0.81676630     0.03000
H167        H  0.44174936  0.22930541  0.76208794     0.08100
H168        H  0.40687452  0.17498287  0.83240972     0.06900
N169        N  0.22339008  0.53896307  0.80055937    -0.27400
N170        N  0.21149722  0.55121277  0.82468955    -0.35300
C171        C  0.21183433  0.58105432  0.82251384     0.00900
C172        C  0.22453774  0.58938792  0.79570021     0.06900
C173        C  0.23177843  0.56183635  0.78226332    -0.06200
H174        H  0.20320142  0.59553420  0.83974720     0.07600
H175        H  0.24219762  0.55875035  0.76072147     0.08800
Cu176      Cu  0.19289073  0.52980047  0.86082004     0.44200
Cu177      Cu  0.22601196  0.49070208  0.79562208     0.42000
Cu178      Cu  0.18674053  0.45397119  0.85839682     0.43900
N179        N  0.16884632  0.50738598  0.89289095    -0.34800
N180        N  0.16630413  0.47809623  0.89172540    -0.29100
C181        C  0.14680525  0.46902395  0.91259936    -0.05200
C182        C  0.13674640  0.49397292  0.92762479     0.07000
C183        C  0.15096985  0.51801403  0.91453695     0.00800
H184        H  0.13908229  0.44627507  0.91526909     0.08500
H185        H  0.14711377  0.54145420  0.91896581     0.07600
N186        N  0.20720713  0.43110444  0.82418403    -0.36300
N187        N  0.22177503  0.44262761  0.80119817    -0.28500
C188        C  0.23172429  0.41925006  0.78441406    -0.03700
C189        C  0.22282908  0.39209477  0.79764275     0.04900
C190        C  0.20736527  0.40118538  0.82272315     0.03000
H191        H  0.24452382  0.42173540  0.76411765     0.08100
H192        H  0.19671152  0.38717653  0.83919572     0.06900
N193        N  0.46191906  0.79265957  0.78967331    -0.27400
N194        N  0.44980628  0.81584889  0.80344961    -0.35300
C195        C  0.41989541  0.81371665  0.80313334     0.00900
C196        C  0.41138610  0.78788105  0.78847563     0.06900
C197        C  0.43891542  0.77502484  0.78010703    -0.06200
H198        H  0.40543828  0.83034510  0.81292882     0.07600
H199        H  0.44188561  0.75435248  0.76798889     0.08800
Cu200      Cu  0.47211425  0.85078834  0.82353030     0.44200
Cu201      Cu  0.51032210  0.78834692  0.78572041     0.42000
Cu202      Cu  0.54885161  0.85316321  0.81981561     0.43900
N203        N  0.49612747  0.88312164  0.84581903    -0.34800
N204        N  0.52550780  0.88406334  0.84425208    -0.29100
C205        C  0.53586760  0.90481133  0.86332180    -0.05200
C206        C  0.51162531  0.91752575  0.87736488     0.07000
C207        C  0.48674733  0.90328200  0.86595707     0.00800
H208        H  0.55924140  0.90885244  0.86801263     0.08500
H209        H  0.46383183  0.90593800  0.87311197     0.07600
N210        N  0.57080871  0.81848037  0.79943602    -0.36300
N211        N  0.55868085  0.79439425  0.78723008    -0.28500
C212        C  0.58167661  0.77690160  0.77762123    -0.03700
C213        C  0.60917427  0.79083692  0.78426707     0.04900
C214        C  0.60070176  0.81709984  0.79804810     0.03000
H215        H  0.57870610  0.75552830  0.76674482     0.08100
H216        H  0.61510794  0.83425923  0.80702641     0.06900
N217        N  0.05823844  0.29094431  0.28975129    -0.27400
N218        N  0.07018498  0.31455728  0.30299573    -0.35300
C219        C  0.10005950  0.31280562  0.30264078     0.00900
C220        C  0.10870385  0.28689435  0.28832776     0.06900
C221        C  0.08132182  0.27342055  0.28042912    -0.06200
H222        H  0.11433165  0.32967616  0.31238330     0.07600
H223        H  0.07849040  0.25251916  0.26864646     0.08800
Cu224      Cu  0.04807494  0.34977380  0.32231418     0.44200
Cu225      Cu  0.01007560  0.28582617  0.28631838     0.42000
Cu226      Cu  0.97203537  0.34624633  0.32785893     0.43900
N227        N  0.02479955  0.38180462  0.34536807    -0.34800
N228        N  0.99552977  0.38015352  0.34780629    -0.29100
C229        C  0.98598247  0.40143452  0.36660990    -0.05200
C230        C  0.01063077  0.41721806  0.37625412     0.07000
C231        C  0.03495956  0.40420310  0.36259395     0.00800
H232        H  0.96317182  0.40389504  0.37416009     0.08500
H233        H  0.05830638  0.40919220  0.36646483     0.07600
N234        N  0.94995673  0.31288330  0.30546209    -0.36300
N235        N  0.96193547  0.29080662  0.28987740    -0.28500
C236        C  0.93888536  0.27454453  0.27833791    -0.03700
C237        C  0.91152121  0.28727420  0.28718007     0.04900
C238        C  0.92007523  0.31140702  0.30438697     0.03000
H239        H  0.94172864  0.25505319  0.26436167     0.08100
H240        H  0.90572210  0.32714637  0.31567505     0.06900
C241        C  0.23303532  0.25255621  0.26401765     0.02100
C242        C  0.24592943  0.22698024  0.27776849     0.02100
C243        C  0.27093496  0.21267059  0.26438680     0.11100
C244        C  0.28650373  0.22722536  0.24069914     0.02100
C245        C  0.27355315  0.25284712  0.22688547     0.02100
C246        C  0.24827293  0.26694397  0.24002179     0.02100
N247        N  0.29585495  0.94069551  0.29654240    -0.27400
N248        N  0.31188146  0.92872515  0.31834037    -0.35300
C249        C  0.31149395  0.89890355  0.31648031     0.00900
C250        C  0.29429877  0.89024373  0.29237088     0.06900
C251        C  0.28468264  0.91760224  0.28004095    -0.06200
H252        H  0.32318000  0.88470593  0.33210597     0.07600
H253        H  0.27047019  0.92039502  0.26067771     0.08800
Cu254      Cu  0.33413358  0.95037213  0.35202414     0.44200
Cu255      Cu  0.29144225  0.98888819  0.29280260     0.42000
Cu256      Cu  0.32929876  0.02578302  0.35732793     0.43900
N257        N  0.35510727  0.97247159  0.38623762    -0.34800
N258        N  0.35315236  0.00172690  0.38851146    -0.29100
C259        C  0.37083402  0.01106285  0.41096185    -0.05200
C260        C  0.38429223  0.98621313  0.42335314     0.07000
C261        C  0.37401230  0.96209666  0.40713208     0.00800
H262        H  0.37497340  0.03421732  0.41656506     0.08500
H263        H  0.38106895  0.93907101  0.40913279     0.07600
N264        N  0.30826615  0.04839663  0.32313866    -0.36300
N265        N  0.29446562  0.03688603  0.29957278    -0.28500
C266        C  0.28455678  0.06027402  0.28274444    -0.03700
C267        C  0.29288617  0.08737482  0.29642774     0.04900
C268        C  0.30769804  0.07831879  0.32194057     0.03000
H269        H  0.27255174  0.05784785  0.26189152     0.08100
H270        H  0.31750619  0.09243421  0.33892436     0.06900
C271        C  0.26934515  0.76562819  0.26028383     0.02100
C272        C  0.24522743  0.75148721  0.27549177     0.02100
C273        C  0.23114372  0.72624574  0.26232163     0.02100
C274        C  0.24450042  0.71181730  0.23738854     0.02100
C275        C  0.26886354  0.72572445  0.22235836     0.02100
C276        C  0.28276584  0.75122911  0.23532318     0.02100
C277        C  0.77415492  0.22840048  0.27365197     0.02100
C278        C  0.74954736  0.21405499  0.25942632     0.02100
C279        C  0.73495829  0.22841536  0.23505656     0.02100
C280        C  0.74825461  0.25387843  0.22160535     0.02100
C281        C  0.77294097  0.26814504  0.23583712     0.02100
C282        C  0.78737144  0.25400627  0.26039131     0.02100
N283        N  0.71308129  0.94213264  0.28370631    -0.27400
N284        N  0.68914704  0.93021578  0.29632845    -0.35300
C285        C  0.69090078  0.90033357  0.29613332     0.00900
C286        C  0.71714407  0.89168568  0.28267452     0.06900
C287        C  0.73071769  0.91895489  0.27472449    -0.06200
H288        H  0.67383855  0.88586395  0.30522369     0.07600
H289        H  0.75204452  0.92160044  0.26373462     0.08800
Cu290      Cu  0.65431793  0.95239158  0.31596479     0.44200
Cu291      Cu  0.71866807  0.99046555  0.28147434     0.42000
Cu292      Cu  0.66038582  0.02783906  0.32649379     0.43900
N293        N  0.62491447  0.97469825  0.34289615    -0.34800
N294        N  0.62766204  0.00361977  0.34757462    -0.29100
C295        C  0.60763641  0.01222563  0.36813457    -0.05200
C296        C  0.59157992  0.98729789  0.37649075     0.07000
C297        C  0.60310476  0.96381336  0.36031754     0.00800
H298        H  0.60574039  0.03459030  0.37708401     0.08500
H299        H  0.59712520  0.94045709  0.36205327     0.07600
N300        N  0.69238980  0.05040946  0.30262692    -0.36300
N301        N  0.71384904  0.03870922  0.28601752    -0.28500
C302        C  0.72958957  0.06201126  0.27430271    -0.03700
C303        C  0.71727233  0.08925713  0.28421011     0.04900
C304        C  0.69373418  0.08031783  0.30198416     0.03000
H305        H  0.74865127  0.05942119  0.25973637     0.08100
H306        H  0.67818511  0.09441870  0.31383121     0.06900
C307        C  0.78495601  0.72697364  0.25987900     0.02100
C308        C  0.77077562  0.75140771  0.27454615     0.02100
C309        C  0.74593638  0.76573367  0.26077311     0.02100
C310        C  0.73208862  0.75225498  0.23553167     0.02100
C311        C  0.74652841  0.72817998  0.22062908     0.02100
C312        C  0.77139125  0.71387393  0.23430437     0.02100
N313        N  0.95985844  0.70066416  0.29642404    -0.27400
N314        N  0.94817988  0.68655013  0.31961409    -0.35300
C315        C  0.91830549  0.68672505  0.31792510     0.00900
C316        C  0.90941566  0.70173557  0.29248195     0.06900
C317        C  0.93661820  0.71033761  0.27924924    -0.06200
H318        H  0.90421766  0.67658228  0.33464115     0.07600
H319        H  0.93923679  0.72282045  0.25875047     0.08800
Cu320      Cu  0.97042631  0.66677105  0.35459171     0.44200
Cu321      Cu  0.00781469  0.70497399  0.29121113     0.42000
Cu322      Cu  0.04622121  0.66712473  0.35391430     0.43900
N323        N  0.99416752  0.64586687  0.38787336    -0.34800
N324        N  0.02357562  0.64605132  0.38753573    -0.29100
C325        C  0.03394951  0.62878541  0.40976857    -0.05200
C326        C  0.00964545  0.61742390  0.42484021     0.07000
C327        C  0.98471616  0.62844815  0.41037623     0.00800
H328        H  0.05725305  0.62354665  0.41350939     0.08500
H329        H  0.96160489  0.62287351  0.41471657     0.07600
N330        N  0.06793999  0.68718566  0.31907860    -0.36300
N331        N  0.05588353  0.70170959  0.29627644    -0.28500
C332        C  0.07885923  0.71191474  0.27915572    -0.03700
C333        C  0.10613408  0.70275794  0.29184557     0.04900
C334        C  0.09777964  0.68731044  0.31704377     0.03000
H335        H  0.07604993  0.72468425  0.25884138     0.08100
H336        H  0.11241162  0.67717789  0.33340138     0.06900
N337        N  0.30939171  0.27570950  0.05130920    -0.27400
N338        N  0.33370324  0.28791348  0.06306387    -0.35300
C339        C  0.33217750  0.28775480  0.09296243     0.00900
C340        C  0.30564564  0.27486885  0.10180095     0.06900
C341        C  0.29168640  0.26725246  0.07458602    -0.06200
H342        H  0.34966787  0.29642786  0.10721716     0.07600
H343        H  0.27012585  0.25663417  0.07201609     0.08800
Cu344      Cu  0.36919965  0.30653894  0.04081345     0.44200
Cu345      Cu  0.30318037  0.27264527  0.00306316     0.42000
Cu346      Cu  0.36401874  0.31223277  0.96478400     0.43900
N347        N  0.40036554  0.33026245  0.01702342    -0.34800
N348        N  0.39814777  0.33257344  0.98777415    -0.29100
C349        C  0.41888419  0.35177502  0.97780775    -0.05200
C350        C  0.43490100  0.36185062  0.00213627     0.07000
C351        C  0.42258087  0.34801171  0.02674407     0.00800
H352        H  0.42085306  0.35922549  0.95490541     0.08500
H353        H  0.42798071  0.35198030  0.04997547     0.07600
N354        N  0.32940606  0.29176913  0.94260031    -0.36300
N355        N  0.30714508  0.27649503  0.95466286    -0.28500
C356        C  0.29001554  0.26609458  0.93161746    -0.03700
C357        C  0.30208795  0.27589494  0.90426615     0.04900
C358        C  0.32699249  0.29193314  0.91273676     0.03000
H359        H  0.27006777  0.25274537  0.93441084     0.08100
H360        H  0.34289501  0.30269332  0.89810718     0.06900
C361        C  0.24693347  0.26734607  0.76440341     0.02100
C362        C  0.27205531  0.25352490  0.77831636     0.02100
C363        C  0.28673451  0.22939445  0.76369724     0.02100
C364        C  0.27296533  0.21538998  0.73848911     0.02100
C365        C  0.24749736  0.22887549  0.72481709     0.02100
C366        C  0.23308446  0.25335894  0.73931865     0.02100
N367        N  0.30917409  0.94325789  0.71311587    -0.27400
N368        N  0.33250759  0.93135626  0.69945862    -0.35300
C369        C  0.33088427  0.90148380  0.69982279     0.00900
C370        C  0.30528857  0.89270191  0.71450710     0.06900
C371        C  0.29195685  0.92004013  0.72279499    -0.06200
H372        H  0.34784907  0.88728847  0.69024024     0.07600
H373        H  0.27127748  0.92272818  0.73494615     0.08800
Cu374      Cu  0.36762225  0.95344543  0.68035193     0.44200
Cu375      Cu  0.30434703  0.99166696  0.71644699     0.42000
Cu376      Cu  0.36921727  0.02946110  0.68104618     0.43900
N377        N  0.40151162  0.97616077  0.65986684    -0.34800
N378        N  0.40220442  0.00556070  0.65995808    -0.29100
C379        C  0.42417761  0.01493961  0.64184773    -0.05200
C380        C  0.43789467  0.98996857  0.63008881     0.07000
C381        C  0.42297285  0.96574336  0.64178487     0.00800
H382        H  0.42822798  0.03800795  0.63589533     0.08500
H383        H  0.42583470  0.94251093  0.63576968     0.07600
N384        N  0.33399637  0.05173189  0.70028692    -0.36300
N385        N  0.31014890  0.03998990  0.71324095    -0.28500
C386        C  0.29283901  0.06330314  0.72250623    -0.03700
C387        C  0.30668769  0.09058385  0.71490628     0.04900
C388        C  0.33261175  0.08163621  0.70084584     0.03000
H389        H  0.27178271  0.06070732  0.73400509     0.08100
H390        H  0.34969840  0.09573358  0.69132770     0.06900
C391        C  0.27283475  0.76782058  0.73852550     0.02100
C392        C  0.24820964  0.75385861  0.72372008     0.02100
C393        C  0.23449397  0.72836552  0.73681256     0.02100
C394        C  0.24853932  0.71367854  0.76128285     0.02100
C395        C  0.27302781  0.72769008  0.77623011     0.02100
C396        C  0.28679079  0.75332208  0.76328501     0.02100
N397        N  0.96148938  0.69260713  0.71569788    -0.27400
N398        N  0.94981691  0.66811128  0.70385365    -0.35300
C399        C  0.91992649  0.66967499  0.70362681     0.00900
C400        C  0.91096477  0.69639488  0.71596610     0.06900
C401        C  0.93811430  0.71046417  0.72365343    -0.06200
H402        H  0.90573480  0.65198676  0.69527208     0.07600
H403        H  0.94055852  0.73216871  0.73398850     0.08800
Cu404      Cu  0.97212270  0.63182296  0.68718055     0.44200
Cu405      Cu  0.00979328  0.69841427  0.71888605     0.42000
Cu406      Cu  0.04758827  0.63222268  0.68622644     0.43900
N407        N  0.99498831  0.59808072  0.66647853    -0.34800
N408        N  0.02437994  0.59831368  0.66582539    -0.29100
C409        C  0.03395085  0.57701007  0.64701373    -0.05200
C410        C  0.00911492  0.56272040  0.63552057     0.07000
C411        C  0.98475386  0.57663233  0.64816680     0.00800
H412        H  0.05693340  0.57403637  0.64020386     0.08500
H413        H  0.96148759  0.57337260  0.64238995     0.07600
N414        N  0.06971113  0.66819106  0.70416240    -0.36300
N415        N  0.05810460  0.69268469  0.71598066    -0.28500
C416        C  0.08154517  0.71047532  0.72414237    -0.03700
C417        C  0.10871937  0.69627541  0.71681599     0.04900
C418        C  0.09958234  0.66958105  0.70437935     0.03000
H419        H  0.07911832  0.73219944  0.73441236     0.08100
H420        H  0.11352241  0.65185117  0.69584318     0.06900
N421        N  0.96152357  0.27515436  0.69906828    -0.27400
N422        N  0.94988247  0.28487297  0.67363042    -0.35300
C423        C  0.91999088  0.28472241  0.67502316     0.00900
C424        C  0.91111589  0.27451605  0.70266036     0.06900
C425        C  0.93823316  0.26836645  0.71740658    -0.06200
H426        H  0.90579246  0.29181434  0.65680050     0.07600
H427        H  0.94074570  0.26005469  0.73994983     0.08800
Cu428      Cu  0.97213075  0.30143597  0.63718589     0.44200
Cu429      Cu  0.00950757  0.27322987  0.70607556     0.42000
Cu430      Cu  0.04760260  0.30991129  0.64342231     0.43900
N431        N  0.99527945  0.32643431  0.60659946    -0.34800
N432        N  0.02438053  0.32990826  0.60928154    -0.29100
C433        C  0.03366286  0.35071991  0.58983611    -0.05200
C434        C  0.00903757  0.36067916  0.57420862     0.07000
C435        C  0.98496549  0.34502704  0.58539121     0.00800
H436        H  0.05612554  0.35961577  0.58890781     0.08500
H437        H  0.96159319  0.34864658  0.58036890     0.07600
N438        N  0.06975251  0.29079901  0.67878821    -0.36300
N439        N  0.05768953  0.27705772  0.70199240    -0.28500
C440        C  0.08066680  0.26768389  0.71972719    -0.03700
C441        C  0.10806479  0.27635657  0.70692987     0.04900
C442        C  0.09961244  0.29077687  0.68102231     0.03000
H443        H  0.07777227  0.25565805  0.74045739     0.08100
H444        H  0.11411959  0.30039168  0.66432984     0.06900
C445        C  0.77242067  0.22967307  0.72133027     0.02100
C446        C  0.78615522  0.25471960  0.73513484     0.02100
C447        C  0.77248904  0.26836571  0.76021746     0.02100
C448        C  0.74814303  0.25395584  0.77463902     0.02100
C449        C  0.73439222  0.22878206  0.76093496     0.02100
C450        C  0.74820984  0.21503575  0.73581819     0.02100
N451        N  0.72489226  0.94447489  0.70580427    -0.27400
N452        N  0.70356607  0.93350996  0.68852015    -0.35300
C453        C  0.70227744  0.90377275  0.69096037     0.00900
C454        C  0.72386518  0.89419456  0.71075532     0.06900
C455        C  0.73803277  0.92083233  0.71982201    -0.06200
H456        H  0.68736801  0.89008674  0.67775442     0.07600
H457        H  0.75667147  0.92272781  0.73512006     0.08800
Cu458      Cu  0.67918422  0.95640516  0.65754721     0.44200
Cu459      Cu  0.73292652  0.99212279  0.70635414     0.42000
Cu460      Cu  0.69951037  0.02746564  0.63833108     0.43900
N461        N  0.66309244  0.97584239  0.61954387    -0.34800
N462        N  0.67129057  0.00290989  0.61145366    -0.29100
C463        C  0.65615434  0.01068129  0.58666716    -0.05200
C464        C  0.63799555  0.98694096  0.57891062     0.07000
C465        C  0.64278248  0.96528410  0.60018892     0.00800
H466        H  0.65701071  0.03245278  0.57621999     0.08500
H467        H  0.63128359  0.94413261  0.60238787     0.07600
N468        N  0.71932853  0.05072422  0.67285444    -0.36300
N469        N  0.73085978  0.03967046  0.69779955    -0.28500
C470        C  0.73864281  0.06327271  0.71534825    -0.03700
C471        C  0.73137265  0.09009909  0.70070197     0.04900
C472        C  0.71937771  0.08066275  0.67384294     0.03000
H473        H  0.74817871  0.06111897  0.73745838     0.08100
H474        H  0.71047770  0.09442433  0.65612572     0.06900
C475        C  0.77238522  0.75309200  0.72202872     0.02100
C476        C  0.78540587  0.72787113  0.73611008     0.02100
C477        C  0.77056216  0.71410099  0.76051998     0.02100
C478        C  0.74581112  0.72868015  0.77414975     0.02100
C479        C  0.73305193  0.75432955  0.76033934     0.02100
C480        C  0.74801086  0.76802837  0.73580593     0.02100
N481        N  0.29193604  0.68618036  0.95128333    -0.27400
N482        N  0.30435807  0.66212215  0.93941978    -0.35300
C483        C  0.30360410  0.66366545  0.90954740     0.00900
C484        C  0.29022725  0.69007114  0.90081666     0.06900
C485        C  0.28294890  0.70387878  0.92815480    -0.06200
H486        H  0.31310375  0.64665367  0.89534934     0.07600
H487        H  0.27230495  0.72536979  0.93093084     0.08800
Cu488      Cu  0.32504429  0.62754815  0.96153917     0.44200
Cu489      Cu  0.28962510  0.69190999  0.99939583     0.42000
Cu490      Cu  0.32432823  0.62684039  0.03751260     0.43900
N491        N  0.34849343  0.59562145  0.98483682    -0.34800
N492        N  0.34793984  0.59516074  0.01424029    -0.29100
C493        C  0.36754751  0.57474744  0.02424372    -0.05200
C494        C  0.38093583  0.56178582  0.99973032     0.07000
C495        C  0.36853255  0.57554981  0.97505776     0.00800
H496        H  0.37318598  0.57124499  0.04749978     0.08500
H497        H  0.37503426  0.57273606  0.95197088     0.07600
N498        N  0.30493401  0.66219136  0.05943031    -0.36300
N499        N  0.29261756  0.68630126  0.04749399    -0.28500
C500        C  0.28366513  0.70402992  0.07056653    -0.03700
C501        C  0.29075393  0.69014665  0.09791914     0.04900
C502        C  0.30422527  0.66378504  0.08929671     0.03000
H503        H  0.27273745  0.72538329  0.06774523     0.08100
H504        H  0.31346956  0.64667620  0.10358373     0.06900
N505        N  0.72510134  0.29046397  0.04624183    -0.27400
N506        N  0.71458713  0.31557004  0.05776493    -0.35300
C507        C  0.71508512  0.31441767  0.08762981     0.00900
C508        C  0.72651366  0.28727066  0.09673693     0.06900
C509        C  0.73270525  0.27249876  0.06964564    -0.06200
H510        H  0.70730715  0.33248193  0.10150036     0.07600
H511        H  0.74205388  0.25034975  0.06722033     0.08800
Cu512      Cu  0.69784068  0.35194415  0.03556653     0.44200
Cu513      Cu  0.72761635  0.28418210  0.99821834     0.42000
Cu514      Cu  0.69690679  0.35148645  0.96048390     0.43900
N515        N  0.67555757  0.38480871  0.01278365    -0.34800
N516        N  0.67492011  0.38452673  0.98340136    -0.29100
C517        C  0.65505995  0.40484905  0.97371069    -0.05200
C518        C  0.64285115  0.41856654  0.99846374     0.07000
C519        C  0.65618551  0.40531930  0.02290615     0.00800
H520        H  0.64821080  0.40755943  0.95067206     0.08500
H521        H  0.65034685  0.40840208  0.04614124     0.07600
N522        N  0.71488214  0.31548648  0.93853561    -0.36300
N523        N  0.72557159  0.29047741  0.95016499    -0.28500
C524        C  0.73355847  0.27259169  0.92683699    -0.03700
C525        C  0.72744688  0.28732862  0.89967019     0.04900
C526        C  0.71574274  0.31436882  0.90869196     0.03000
H527        H  0.74297729  0.25049748  0.92935395     0.08100
H528        H  0.70780964  0.33237855  0.89472902     0.06900
N529        N  0.70749281  0.70895848  0.04530008    -0.27400
N530        N  0.68250194  0.69836234  0.05702484    -0.35300
C531        C  0.68402436  0.69896551  0.08690978     0.00900
C532        C  0.71134989  0.71029927  0.09571629     0.06900
C533        C  0.72570771  0.71668516  0.06850222    -0.06200
H534        H  0.66621314  0.69108265  0.10111765     0.07600
H535        H  0.74798427  0.72564049  0.06586464     0.08800
Cu536      Cu  0.64695405  0.67942041  0.03478499     0.44200
Cu537      Cu  0.71414243  0.71028917  0.99732606     0.42000
Cu538      Cu  0.65578290  0.66653053  0.95983594     0.43900
N539        N  0.61742864  0.65278669  0.01167359    -0.34800
N540        N  0.62118663  0.64776097  0.98293721    -0.29100
C541        C  0.60157000  0.62705610  0.97372223    -0.05200
C542        C  0.58468298  0.61874313  0.99799170     0.07000
C543        C  0.59530140  0.63523020  0.02183050     0.00800
H544        H  0.60107420  0.61737136  0.95157988     0.08500
H545        H  0.58894561  0.63313372  0.04503467     0.07600
N546        N  0.68953263  0.68763303  0.93746630    -0.36300
N547        N  0.71067282  0.70462884  0.94931779    -0.28500
C548        C  0.72708627  0.71571670  0.92625203    -0.03700
C549        C  0.71570724  0.70462575  0.89910720     0.04900
C550        C  0.69196605  0.68703739  0.90764487     0.03000
H551        H  0.74594428  0.73059972  0.92890973     0.08100
H552        H  0.67668371  0.67517692  0.89313239     0.06900
N553        N  0.55898296  0.19072257  0.21954205    -0.27400
N554        N  0.57052457  0.16445720  0.21233778    -0.35300
C555        C  0.60039366  0.16583570  0.21225409     0.00900
C556        C  0.60948778  0.19436132  0.21956864     0.06900
C557        C  0.58239815  0.20966190  0.22431763    -0.06200
H558        H  0.61434442  0.14698271  0.20665260     0.07600
H559        H  0.57998649  0.23295025  0.23028335     0.08800
Cu560      Cu  0.54850023  0.12679999  0.19820664     0.44200
Cu561      Cu  0.51089941  0.19756227  0.22092208     0.42000
Cu562      Cu  0.47417205  0.13335432  0.18529849     0.43900
N563        N  0.52669403  0.09571006  0.17249807    -0.34800
N564        N  0.49790318  0.09861734  0.16717199    -0.29100
C565        C  0.48974421  0.07934513  0.14568776    -0.05200
C566        C  0.51481288  0.06365032  0.13714847     0.07000
C567        C  0.53795751  0.07456927  0.15442435     0.00800
H568        H  0.46794072  0.07880100  0.13520970     0.08500
H569        H  0.56149983  0.06966800  0.15203733     0.07600
N570        N  0.45126540  0.16832376  0.20406554    -0.36300
N571        N  0.46273042  0.19211150  0.21739681    -0.28500
C572        C  0.43926070  0.20904318  0.22692534    -0.03700
C573        C  0.41214665  0.19492160  0.21912823     0.04900
C574        C  0.42136507  0.16931734  0.20462755     0.03000
H575        H  0.44163139  0.22991846  0.23885714     0.08100
H576        H  0.40746257  0.15214172  0.19489508     0.06900
N577        N  0.20763575  0.53725974  0.21056125    -0.27400
N578        N  0.18417906  0.54899906  0.19683858    -0.35300
C579        C  0.18566417  0.57890487  0.19741413     0.00900
C580        C  0.21127461  0.58764355  0.21226253     0.06900
C581        C  0.22473584  0.56042993  0.22045259    -0.06200
H582        H  0.16861960  0.59319190  0.18799471     0.07600
H583        H  0.24543389  0.55776238  0.23267229     0.08800
Cu584      Cu  0.14908605  0.52636004  0.17774140     0.44200
Cu585      Cu  0.21326159  0.48928705  0.21428159     0.42000
Cu586      Cu  0.14683942  0.45017667  0.18340578     0.43900
N587        N  0.11474852  0.50244614  0.15888895    -0.34800
N588        N  0.11369584  0.47311562  0.16099648    -0.29100
C589        C  0.09127522  0.46282627  0.14376663    -0.05200
C590        C  0.07759995  0.48711987  0.13048154     0.07000
C591        C  0.09306599  0.51186453  0.14039170     0.00800
H592        H  0.08681700  0.43946243  0.13946198     0.08500
H593        H  0.09031307  0.53469295  0.13294105     0.07600
N594        N  0.18335692  0.42877384  0.20176141    -0.36300
N595        N  0.20796187  0.44114268  0.21265962    -0.28500
C596        C  0.22640964  0.41842385  0.22116313    -0.03700
C597        C  0.21256135  0.39078128  0.21515198     0.04900
C598        C  0.18534408  0.39893024  0.20298188     0.03000
H599        H  0.24831659  0.42168276  0.23085885     0.08100
H600        H  0.16775893  0.38431600  0.19521021     0.06900
N601        N  0.20962077  0.20064121  0.45260432    -0.27400
N602        N  0.18716226  0.18559839  0.44047093    -0.35300
C603        C  0.18921517  0.18585284  0.41058928     0.00900
C604        C  0.21409072  0.20192736  0.40225525     0.06900
C605        C  0.22652824  0.21124563  0.42963530    -0.06200
H606        H  0.17307231  0.17540108  0.39592034     0.07600
H607        H  0.24652646  0.22452426  0.43251357     0.08800
Cu608      Cu  0.15274458  0.16492460  0.46248461     0.44200
Cu609      Cu  0.21443608  0.20450281  0.50091509     0.42000
Cu610      Cu  0.15032730  0.16884034  0.53899653     0.43900
N611        N  0.11944148  0.14404710  0.48592853    -0.34800
N612        N  0.11833319  0.14549342  0.51529911    -0.29100
C613        C  0.09635944  0.12753133  0.52511722    -0.05200
C614        C  0.08308013  0.11443848  0.50049334     0.07000
C615        C  0.09826883  0.12521776  0.47601440     0.00800
H616        H  0.09171057  0.12294197  0.54837422     0.08500
H617        H  0.09544578  0.11848805  0.45296500     0.07600
N618        N  0.18531322  0.18920092  0.56123147    -0.36300
N619        N  0.20909961  0.20204754  0.54925365    -0.28500
C620        C  0.22660182  0.21170589  0.57235172    -0.03700
C621        C  0.21295451  0.20451954  0.59981949     0.04900
C622        C  0.18690941  0.19027955  0.59113565     0.03000
H623        H  0.24768005  0.22314616  0.56948893     0.08100
H624        H  0.16995494  0.18086014  0.60544276     0.06900
O625        O  0.96543097  0.00810322  0.47262214    -0.73100
O626        O  0.04574802  0.96887170  0.46965481    -0.74100
O627        O  0.98579258  0.94808982  0.46928671    -0.62700
O628        O  0.02527465  0.02854181  0.47300467    -0.71100
O629        O  0.02577894  0.02610303  0.52260953    -0.70700
O630        O  0.98653138  0.94582481  0.51888920    -0.61900
O631        O  0.04624080  0.96660755  0.51927590    -0.74400
O632        O  0.96605499  0.00562743  0.52223427    -0.73200
Cu633      Cu  0.00548480  0.98846347  0.46935198     1.04600
Cu634      Cu  0.00612974  0.98591068  0.52247983     1.04300
C635        C  0.95340623  0.01334162  0.49788935     0.93100
C636        C  0.05860601  0.96179384  0.49410812     0.92200
C637        C  0.98007005  0.93436805  0.49359760     0.84400
C638        C  0.03187719  0.03976222  0.49838688     0.90700
O639        O  0.49012046  0.97389850  0.96612632    -0.73100
O640        O  0.49271578  0.01439576  0.04568175    -0.74100
O641        O  0.49230317  0.03396408  0.98532292    -0.62700
O642        O  0.49053200  0.95447737  0.02610695    -0.71100
O643        O  0.54018755  0.95290210  0.02552071    -0.70700
O644        O  0.54195126  0.03262436  0.98461999    -0.61900
O645        O  0.54237298  0.01297586  0.04517536    -0.74400
O646        O  0.53977866  0.97239336  0.96541252    -0.73200
Cu647      Cu  0.48968445  0.99430034  0.00586430     1.04600
Cu648      Cu  0.54285983  0.99273107  0.00518380     1.04300
C649        C  0.51453135  0.96666329  0.95341867     0.93100
C650        C  0.51787268  0.01972387  0.05801815     0.92200
C651        C  0.51733656  0.04551099  0.97815934     0.84400
C652        C  0.51503964  0.94122529  0.03208617     0.90700
O653        O  0.96456227  0.51145950  0.01770079    -0.73100
O654        O  0.04689306  0.51666276  0.98332166    -0.74100
O655        O  0.98838068  0.51482536  0.95933788    -0.62700
O656        O  0.02309491  0.51286112  0.04198606    -0.71100
O657        O  0.02501217  0.46328056  0.03984428    -0.70700
O658        O  0.99055298  0.46523479  0.95738284    -0.61900
O659        O  0.04902495  0.46708842  0.98131947    -0.74400
O660        O  0.96636185  0.46186964  0.01568038    -0.73200
Cu661      Cu  0.00566164  0.51570783  0.00069871     1.04600
Cu662      Cu  0.00783630  0.46261408  0.99851268     1.04300
C663        C  0.95256455  0.48599246  0.02203295     0.93100
C664        C  0.06068663  0.49267699  0.97657760     0.92200
C665        C  0.98396220  0.49027078  0.94552963     0.84400
C666        C  0.02956772  0.48771506  0.05377256     0.90700
O667        O  0.53044455  0.52940424  0.97494984    -0.73100
O668        O  0.49167566  0.44876886  0.97614296    -0.74100
O669        O  0.47081647  0.50840746  0.97553798    -0.62700
O670        O  0.55142544  0.46979663  0.97514494    -0.71100
O671        O  0.55214412  0.47021209  0.02480502    -0.70700
O672        O  0.47134317  0.50900998  0.02519878    -0.61900
O673        O  0.49231629  0.44941301  0.02581161    -0.74400
O674        O  0.53102345  0.52975290  0.02462689    -0.73200
Cu675      Cu  0.51108441  0.48905479  0.97367494     1.04600
Cu676      Cu  0.51174314  0.48959591  0.02686741     1.04300
C677        C  0.53678446  0.54213405  0.99967067     0.93100
C678        C  0.48572354  0.43663224  0.00121827     0.92200
C679        C  0.45851469  0.51482994  0.00038307     0.84400
C680        C  0.56441080  0.46401308  0.99985633     0.90700
O681        O  0.03513284  0.47305987  0.46464610    -0.73100
O682        O  0.03339674  0.51106060  0.54532419    -0.74100
O683        O  0.03335331  0.45164421  0.52394714    -0.62700
O684        O  0.03484107  0.53248604  0.48569031    -0.71100
O685        O  0.98516183  0.53264524  0.48450766    -0.70700
O686        O  0.98367612  0.45197855  0.52269702    -0.61900
O687        O  0.98371845  0.51140867  0.54422567    -0.74400
O688        O  0.98544922  0.47327908  0.46333864    -0.73200
Cu689      Cu  0.03594206  0.49209674  0.50499266     1.04600
Cu690      Cu  0.98273217  0.49238614  0.50367888     1.04300
C691        C  0.01057503  0.46711363  0.45144843     0.93100
C692        C  0.00836816  0.51705066  0.55745358     0.92200
C693        C  0.00827806  0.43915387  0.52917639     0.84400
C694        C  0.01017104  0.54495321  0.47868873     0.90700
O695        O  0.49205803  0.01192889  0.54059738    -0.73100
O696        O  0.53155156  0.00993623  0.46085597    -0.74100
O697        O  0.47157572  0.01075011  0.48071323    -0.62700
O698        O  0.55169307  0.01101980  0.52042962    -0.71100
O699        O  0.55141568  0.96134389  0.52147445    -0.70700
O700        O  0.47118643  0.96109003  0.48165124    -0.61900
O701        O  0.53131799  0.96025405  0.46169538    -0.74400
O702        O  0.49162755  0.96225826  0.54170559    -0.73200
Cu703      Cu  0.51167728  0.01264337  0.50059867     1.04600
Cu704      Cu  0.51131278  0.95944034  0.50165721     1.04300
C705        C  0.48582535  0.98744485  0.55370046     0.93100
C706        C  0.53806329  0.98487105  0.44904617     0.92200
C707        C  0.45893061  0.98589636  0.47479972     0.84400
C708        C  0.56404421  0.98625998  0.52716491     0.90700
C709        C  0.06250275  0.08990716  0.50048663    -0.13400
C710        C  0.04734294  0.06771422  0.49970220    -0.15000
C711        C  0.05743466  0.48650226  0.10556640    -0.13400
C712        C  0.04325946  0.48690611  0.08269023    -0.15000
C713        C  0.51845079  0.03360954  0.08677845    -0.13400
C714        C  0.51751571  0.04626933  0.11045129    -0.15000
C715        C  0.56532185  0.59339287  0.99925291    -0.13400
C716        C  0.55127062  0.57053468  0.99947782    -0.15000
C717        C  0.61644990  0.43663279  0.99894981    -0.13400
C718        C  0.59307985  0.44988918  0.99950938    -0.15000
C719        C  0.43006064  0.52939951  0.00034345    -0.13400
C720        C  0.40698616  0.54318644  0.00005223    -0.15000
C721        C  0.72392707  0.69522923  0.81445856    -0.13500
C722        C  0.73799344  0.72189645  0.80604992     0.08600
C723        C  0.74557530  0.74257333  0.82860774    -0.13500
C724        C  0.73925913  0.73678395  0.85884431    -0.13500
C725        C  0.72480330  0.71027790  0.86731992     0.08600
C726        C  0.71735489  0.68954335  0.84463180    -0.13500
H727        H  0.71775163  0.67892451  0.79768880     0.12600
H728        H  0.75655451  0.76330993  0.82273776     0.12600
H729        H  0.74508967  0.75334904  0.87548989     0.12600
H730        H  0.70641620  0.66872665  0.85016665     0.12600
C731        C  0.61424868  0.98695483  0.55753303    -0.13400
C732        C  0.59213425  0.98653335  0.54229934    -0.15000
C733        C  0.75699980  0.85282878  0.73156453    -0.13500
C734        C  0.73021154  0.86193669  0.71788625     0.08600
C735        C  0.70941341  0.83947910  0.70978530    -0.13500
C736        C  0.71531032  0.80909319  0.71474040    -0.13500
C737        C  0.74204557  0.80011691  0.72826230     0.08600
C738        C  0.76281786  0.82231311  0.73664928    -0.13500
H739        H  0.77356752  0.86920355  0.73809586     0.12600
H740        H  0.68821596  0.84519798  0.69972021     0.12600
H741        H  0.69878296  0.79258505  0.70837753     0.12600
H742        H  0.78351719  0.81596425  0.74748795     0.12600
C743        C  0.74791462  0.24184622  0.82970720    -0.13500
C744        C  0.74058991  0.26174235  0.80638490     0.08600
C745        C  0.72806728  0.28935299  0.81390078    -0.13500
C746        C  0.72369393  0.29725444  0.84390308    -0.13500
C747        C  0.73164822  0.27779361  0.86758121     0.08600
C748        C  0.74357825  0.24975706  0.85989410    -0.13500
H749        H  0.75770683  0.22035157  0.82452140     0.12600
H750        H  0.72194914  0.30502528  0.79652435     0.12600
H751        H  0.71424580  0.31899894  0.84820521     0.12600
H752        H  0.74988573  0.23404671  0.87715143     0.12600
C753        C  0.75297148  0.15993021  0.74564126    -0.13500
C754        C  0.74124426  0.18321511  0.72799029     0.08600
C755        C  0.72566352  0.17572198  0.70190194    -0.13500
C756        C  0.72220035  0.14568418  0.69343923    -0.13500
C757        C  0.73432169  0.12212806  0.71076606     0.08600
C758        C  0.74948642  0.12980884  0.73723390    -0.13500
H759        H  0.76545428  0.16516919  0.76572019     0.12600
H760        H  0.71667405  0.19317236  0.68774885     0.12600
H761        H  0.71012729  0.14118580  0.67302545     0.12600
H762        H  0.75918295  0.11262415  0.75120146     0.12600
C763        C  0.00786588  0.38698976  0.55612462    -0.13400
C764        C  0.00775229  0.41040409  0.54299944    -0.15000
C765        C  0.87136515  0.25344434  0.73725959    -0.13500
C766        C  0.87917391  0.27125497  0.71264335     0.08600
C767        C  0.85575378  0.28515513  0.69646944    -0.13500
C768        C  0.82562577  0.28050719  0.70393905    -0.13500
C769        C  0.81800187  0.26195392  0.72787295     0.08600
C770        C  0.84116922  0.24882941  0.74471351    -0.13500
H771        H  0.88851810  0.24240133  0.75027307     0.12600
H772        H  0.86052965  0.29959049  0.67774590     0.12600
H773        H  0.80826647  0.29108708  0.69079210     0.12600
H774        H  0.83578613  0.23442025  0.76336420     0.12600
C775        C  0.00847990  0.54408537  0.60957461    -0.13400
C776        C  0.00807270  0.53081668  0.58623899    -0.15000
C777        C  0.85566462  0.69153699  0.70381817    -0.13500
C778        C  0.87887469  0.70588594  0.71996881     0.08600
C779        C  0.87068842  0.72805923  0.74060792    -0.13500
C780        C  0.84038812  0.73506947  0.74543272    -0.13500
C781        C  0.81742444  0.72025537  0.72971721     0.08600
C782        C  0.82540979  0.69859193  0.70864660    -0.13500
H783        H  0.86074740  0.67468145  0.68730559     0.12600
H784        H  0.88764149  0.73953546  0.75352522     0.12600
H785        H  0.83475975  0.75196088  0.76179828     0.12600
H786        H  0.80824630  0.68701380  0.69608869     0.12600
C787        C  0.29251432  0.69116448  0.81495481    -0.13500
C788        C  0.28018082  0.71904402  0.80793898     0.08600
C789        C  0.27138650  0.73774590  0.83170858    -0.13500
C790        C  0.27447436  0.72861237  0.86173087    -0.13500
C791        C  0.28651650  0.70045927  0.86887667     0.08600
C792        C  0.29552559  0.68198651  0.84481987    -0.13500
H793        H  0.29922498  0.67614049  0.79723741     0.12600
H794        H  0.26136545  0.75924167  0.82695620     0.12600
H795        H  0.26722423  0.74354136  0.87928174     0.12600
H796        H  0.30476338  0.66007120  0.84873218     0.12600
C797        C  0.17932648  0.73925461  0.74101352    -0.13500
C798        C  0.20246292  0.72123841  0.72951980     0.08600
C799        C  0.19458105  0.69590072  0.71299785    -0.13500
C800        C  0.16440503  0.68837244  0.70858875    -0.13500
C801        C  0.14093659  0.70583528  0.72069474     0.08600
C802        C  0.14899430  0.73168138  0.73670199    -0.13500
H803        H  0.18481439  0.75894203  0.75397528     0.12600
H804        H  0.21180686  0.68172497  0.70370970     0.12600
H805        H  0.15976829  0.66853537  0.69567331     0.12600
H806        H  0.13192425  0.74579379  0.74634126     0.12600
C807        C  0.47147178  0.98833380  0.58211163    -0.13400
C808        C  0.45747561  0.98928825  0.60494163    -0.15000
C809        C  0.27224216  0.85329158  0.73903783    -0.13500
C810        C  0.29607768  0.86066290  0.71999796     0.08600
C811        C  0.31187691  0.83673539  0.70654081    -0.13500
C812        C  0.30442619  0.80673548  0.71222102    -0.13500
C813        C  0.28086078  0.79961051  0.73141847     0.08600
C814        C  0.26484861  0.82320717  0.74473554    -0.13500
H815        H  0.25952155  0.87073230  0.74987806     0.12600
H816        H  0.33019058  0.84092233  0.69146398     0.12600
H817        H  0.31714526  0.78907233  0.70170499     0.12600
H818        H  0.24656292  0.81826070  0.75973623     0.12600
C819        C  0.25858708  0.22819755  0.66926424    -0.13500
C820        C  0.23924224  0.22085270  0.69303140     0.08600
C821        C  0.21178862  0.20756728  0.68586707    -0.13500
C822        C  0.20360426  0.20235088  0.65594351    -0.13500
C823        C  0.22260402  0.21010329  0.63187214     0.08600
C824        C  0.25040378  0.22298844  0.63916971    -0.13500
H825        H  0.27994109  0.23855827  0.67401878     0.12600
H826        H  0.19648314  0.20131401  0.70346213     0.12600
H827        H  0.18200106  0.19237875  0.65196009     0.12600
H828        H  0.26580893  0.22921958  0.62165944     0.12600
C829        C  0.14763841  0.24989945  0.73833040    -0.13500
C830        C  0.13994461  0.27155408  0.71690566     0.08600
C831        C  0.16348270  0.28815882  0.70383034    -0.13500
C832        C  0.19356907  0.28270618  0.71117020    -0.13500
C833        C  0.20112464  0.26062976  0.73197760     0.08600
C834        C  0.17781197  0.24456774  0.74576902    -0.13500
H835        H  0.13042822  0.23661993  0.74887124     0.12600
H836        H  0.15882535  0.30547680  0.68767361     0.12600
H837        H  0.21097671  0.29553585  0.70036503     0.12600
H838        H  0.18307822  0.22738929  0.76196875     0.12600
C839        C  0.26164664  0.16015539  0.73789666    -0.13500
C840        C  0.28112606  0.18377236  0.73045458     0.08600
C841        C  0.30859917  0.17659059  0.71738770    -0.13500
C842        C  0.31657142  0.14662079  0.71229442    -0.13500
C843        C  0.29736592  0.12267941  0.72013638     0.08600
C844        C  0.26964238  0.13007847  0.73290939    -0.13500
H845        H  0.24033734  0.16502845  0.74821003     0.12600
H846        H  0.32410287  0.19418372  0.71147764     0.12600
H847        H  0.33818082  0.14248341  0.70247938     0.12600
H848        H  0.25414633  0.11265211  0.73923635     0.12600
C849        C  0.45536380  0.38640502  0.00228085    -0.13400
C850        C  0.47042115  0.40863420  0.00182872    -0.15000
C851        C  0.30059419  0.29152735  0.84981623    -0.13500
C852        C  0.29247916  0.27086260  0.87232265     0.08600
C853        C  0.27714309  0.24493628  0.86340140    -0.13500
C854        C  0.27090447  0.23952542  0.83295523    -0.13500
C855        C  0.27936522  0.26003858  0.81057697     0.08600
C856        C  0.29402922  0.28627481  0.81946407    -0.13500
H857        H  0.31214046  0.31195533  0.85564912     0.12600
H858        H  0.27070612  0.22844026  0.87984850     0.12600
H859        H  0.25940737  0.21914497  0.82677053     0.12600
H860        H  0.30063043  0.30258720  0.80289023     0.12600
C861        C  0.01019432  0.59407111  0.44664264    -0.13400
C862        C  0.01047629  0.57257944  0.46272678    -0.15000
C863        C  0.71369537  0.70422122  0.18125552    -0.13500
C864        C  0.73869968  0.72143647  0.18873639     0.08600
C865        C  0.75554631  0.73422141  0.16544093    -0.13500
C866        C  0.74724010  0.73030582  0.13529331    -0.13500
C867        C  0.72173822  0.71356344  0.12764916     0.08600
C868        C  0.70538801  0.70027564  0.15122946    -0.13500
H869        H  0.70030459  0.69420596  0.19870603     0.12600
H870        H  0.77488042  0.74780742  0.17068911     0.12600
H871        H  0.76042530  0.74091394  0.11806302     0.12600
H872        H  0.68588449  0.68678371  0.14672913     0.12600
C873        C  0.82354493  0.70231860  0.29317008    -0.13500
C874        C  0.81656699  0.71891375  0.26762941     0.08600
C875        C  0.84020522  0.72925358  0.24963639    -0.13500
C876        C  0.87022810  0.72360330  0.25732202    -0.13500
C877        C  0.87744216  0.70729678  0.28320660     0.08600
C878        C  0.85345177  0.69651354  0.30079055    -0.13500
H879        H  0.80583013  0.69407572  0.30739268     0.12600
H880        H  0.83536757  0.74222772  0.22979450     0.12600
H881        H  0.88772915  0.73227016  0.24312956     0.12600
H882        H  0.85747390  0.68371434  0.32082266     0.12600
C883        C  0.57045296  0.98544972  0.40029615    -0.13400
C884        C  0.55441632  0.98454845  0.42174077    -0.15000
C885        C  0.71541650  0.83693118  0.29713288    -0.13500
C886        C  0.72667304  0.85968885  0.27828011     0.08600
C887        C  0.74510636  0.85101728  0.25445065    -0.13500
C888        C  0.75119056  0.82056865  0.24909982    -0.13500
C889        C  0.73939589  0.79796497  0.26761602     0.08600
C890        C  0.72176103  0.80655923  0.29194346    -0.13500
H891        H  0.70146557  0.84254962  0.31600845     0.12600
H892        H  0.75405911  0.86766962  0.23940081     0.12600
H893        H  0.76501094  0.81454219  0.23021569     0.12600
H894        H  0.71254061  0.78975753  0.30667346     0.12600
C895        C  0.69509832  0.19366885  0.21473272    -0.13500
C896        C  0.70301751  0.22087086  0.22794698     0.08600
C897        C  0.67994800  0.24045073  0.23669059    -0.13500
C898        C  0.64963672  0.23243909  0.23343819    -0.13500
C899        C  0.64158568  0.20459504  0.22127816     0.08600
C900        C  0.66494138  0.18569177  0.21138036    -0.13500
H901        H  0.71228589  0.17830980  0.20745604     0.12600
H902        H  0.68546663  0.26165064  0.24697594     0.12600
H903        H  0.63259361  0.24771543  0.24116779     0.12600
H904        H  0.66020937  0.16433321  0.20121836     0.12600
C905        C  0.74699454  0.24179174  0.16661395    -0.13500
C906        C  0.74022990  0.26172139  0.18994965     0.08600
C907        C  0.72789129  0.28955137  0.18253200    -0.13500
C908        C  0.72334503  0.29735160  0.15250811    -0.13500
C909        C  0.73076619  0.27782798  0.12883408     0.08600
C910        C  0.74244037  0.24958534  0.13643701    -0.13500
H911        H  0.75670343  0.22000472  0.17175991     0.12600
H912        H  0.72224362  0.30518123  0.19979867     0.12600
H913        H  0.71406884  0.31946037  0.14816861     0.12600
H914        H  0.74830502  0.23391890  0.11931007     0.12600
C915        C  0.75674856  0.15866368  0.25243644    -0.13500
C916        C  0.74188388  0.18228007  0.26697996     0.08600
C917        C  0.71919101  0.17521422  0.28722205    -0.13500
C918        C  0.71149102  0.14525213  0.29276954    -0.13500
C919        C  0.72617980  0.12129719  0.27816603     0.08600
C920        C  0.74903038  0.12861756  0.25791533    -0.13500
H921        H  0.77420878  0.16356993  0.23647300     0.12600
H922        H  0.70725324  0.19291128  0.29856699     0.12600
H923        H  0.69385672  0.14113118  0.30864799     0.12600
H924        H  0.76084581  0.11117203  0.24610539     0.12600
C925        C  0.25049815  0.65650341  0.24503199    -0.13500
C926        C  0.23600376  0.68020986  0.23023854     0.08600
C927        C  0.21381726  0.67338060  0.20923710    -0.13500
C928        C  0.20619812  0.64348141  0.20325529    -0.13500
C929        C  0.22055478  0.61949124  0.21811935     0.08600
C930        C  0.24301253  0.62655956  0.23896424    -0.13500
H931        H  0.26772819  0.66126349  0.26137488     0.12600
H932        H  0.20235922  0.69118515  0.19752156     0.12600
H933        H  0.18902344  0.63933882  0.18677125     0.12600
H934        H  0.25453167  0.60899347  0.25094435     0.12600
C935        C  0.27066720  0.73704978  0.16706065    -0.13500
C936        C  0.27637842  0.71703057  0.19074118     0.08600
C937        C  0.28741767  0.68864013  0.18364161    -0.13500
C938        C  0.29188010  0.68017664  0.15378002    -0.13500
C939        C  0.28577505  0.69991920  0.12982202     0.08600
C940        C  0.27524758  0.72863424  0.13704162    -0.13500
H941        H  0.26205454  0.75913857  0.17182565     0.12600
H942        H  0.29245231  0.67282491  0.20121188     0.12600
H943        H  0.29991568  0.65781059  0.14974469     0.12600
H944        H  0.27041616  0.74459039  0.11953767     0.12600
C945        C  0.19091403  0.69388893  0.28559869    -0.13500
C946        C  0.19922201  0.71964739  0.26994321     0.08600
C947        C  0.17658166  0.73929610  0.26024842    -0.13500
C948        C  0.14628171  0.73349244  0.26628900    -0.13500
C949        C  0.13790179  0.70804359  0.28256248     0.08600
C950        C  0.16069537  0.68822242  0.29190615    -0.13500
H951        H  0.20780381  0.67827991  0.29311221     0.12600
H952        H  0.18244643  0.75923350  0.24788249     0.12600
H953        H  0.12951722  0.74929607  0.25891368     0.12600
H954        H  0.15520595  0.66815760  0.30418268     0.12600
C955        C  0.40874806  0.98604868  0.44406351    -0.13400
C956        C  0.43094406  0.98587348  0.45928112    -0.15000
C957        C  0.27243865  0.85094331  0.25720392    -0.13500
C958        C  0.28827456  0.85827503  0.28338323     0.08600
C959        C  0.29865801  0.83436054  0.30137436    -0.13500
C960        C  0.29339271  0.80443601  0.29360767    -0.13500
C961        C  0.27748326  0.79729622  0.26765654     0.08600
C962        C  0.26713182  0.82085627  0.24947513    -0.13500
H963        H  0.26403203  0.86839823  0.24274129     0.12600
H964        H  0.31070043  0.83843190  0.32188109     0.12600
H965        H  0.30130421  0.78681003  0.30818089     0.12600
H966        H  0.25445603  0.81590460  0.22944557     0.12600
C967        C  0.22115421  0.19438630  0.31713620    -0.13500
C968        C  0.23775076  0.21980577  0.30950423     0.08600
C969        C  0.24732279  0.23893541  0.33264410    -0.13500
C970        C  0.24048497  0.23288058  0.36272554    -0.13500
C971        C  0.22348206  0.20768756  0.37049489     0.08600
C972        C  0.21402434  0.18847963  0.34717571    -0.13500
H973        H  0.21352099  0.17924842  0.29986792     0.12600
H974        H  0.26022738  0.25869517  0.32734332     0.12600
H975        H  0.24795678  0.24828192  0.37983068     0.12600
H976        H  0.20111575  0.16866215  0.35210266     0.12600
C977        C  0.37201476  0.23160749  0.23648739    -0.13500
C978        C  0.37994568  0.20365661  0.22451980     0.08600
C979        C  0.35640381  0.18369942  0.21732574    -0.13500
C980        C  0.32628077  0.19131402  0.22188262    -0.13500
C981        C  0.31847937  0.21911070  0.23392276     0.08600
C982        C  0.34175686  0.23919023  0.24107792    -0.13500
H983        H  0.38914544  0.24765369  0.24232731     0.12600
H984        H  0.36096598  0.16182739  0.20827497     0.12600
H985        H  0.30904710  0.17536562  0.21603987     0.12600
H986        H  0.33646963  0.26075206  0.25067202     0.12600
C987        C  0.21370585  0.30489233  0.21611171    -0.13500
C988        C  0.24029054  0.29841365  0.23129230     0.08600
C989        C  0.25863950  0.32249031  0.24014809    -0.13500
C990        C  0.25013864  0.35237704  0.23469654    -0.13500
C991        C  0.22302136  0.35902502  0.22013248     0.08600
C992        C  0.20524451  0.33460476  0.21058838    -0.13500
H993        H  0.19915500  0.28689747  0.20899485     0.12600
H994        H  0.27928813  0.31812931  0.25202101     0.12600
H995        H  0.26456807  0.37021616  0.24234236     0.12600
H996        H  0.18436992  0.33813460  0.19899450     0.12600
C997        C  0.26615184  0.24493403  0.17172724    -0.13500
C998        C  0.28131747  0.25980174  0.19502066     0.08600
C999        C  0.30346342  0.28054436  0.18746761    -0.13500
C1000       C  0.31073318  0.28577291  0.15734604    -0.13500
C1001       C  0.29606757  0.27042144  0.13380437     0.08600
C1002       C  0.27332886  0.25020961  0.14155175    -0.13500
H1003       H  0.24883344  0.22888863  0.17699137     0.12600
H1004       H  0.31527860  0.29254630  0.20485875     0.12600
H1005       H  0.32800400  0.30196808  0.15265505     0.12600
H1006       H  0.26151343  0.23795583  0.12434775     0.12600
C1007       C  0.29883226  0.17303017  0.29377182    -0.13500
C1008       C  0.27756382  0.18069591  0.27213103     0.08600
C1009       C  0.26169444  0.15749328  0.25785315    -0.13500
C1010       C  0.26685017  0.12728568  0.26515341    -0.13500
C1011       C  0.28790344  0.11943375  0.28716438     0.08600
C1012       C  0.30393664  0.14290724  0.30116082    -0.13500
H1013       H  0.31137896  0.19037597  0.30507390     0.12600
H1014       H  0.24507641  0.16285343  0.24107142     0.12600
H1015       H  0.25398796  0.11015292  0.25391550     0.12600
H1016       H  0.32067762  0.13818029  0.31793192     0.12600
C1017       C  0.01133340  0.43763149  0.40078448    -0.13400
C1018       C  0.01121040  0.45235587  0.42320762    -0.15000
C1019       C  0.85568369  0.29752101  0.28806360    -0.13500
C1020       C  0.87967999  0.27837077  0.28046641     0.08600
C1021       C  0.87258683  0.25089280  0.26695976    -0.13500
C1022       C  0.84263577  0.24297905  0.26118273    -0.13500
C1023       C  0.81891839  0.26233484  0.26854854     0.08600
C1024       C  0.82584644  0.28958638  0.28228474    -0.13500
H1025       H  0.85971488  0.31898085  0.29832038     0.12600
H1026       H  0.89013976  0.23543899  0.26089449     0.12600
H1027       H  0.83793110  0.22177688  0.25051066     0.12600
H1028       H  0.80817407  0.30483217  0.28852080     0.12600
C1029       C  0.14768529  0.24984265  0.26944305    -0.13500
C1030       C  0.14063035  0.27736653  0.28286601     0.08600
C1031       C  0.16474792  0.29624267  0.29101927    -0.13500
C1032       C  0.19458679  0.28819182  0.28554777    -0.13500
C1033       C  0.20143725  0.26099403  0.27173871     0.08600
C1034       C  0.17765050  0.24176857  0.26405729    -0.13500
H1035       H  0.13009074  0.23458232  0.26291894     0.12600
H1036       H  0.16086264  0.31765106  0.30140143     0.12600
H1037       H  0.21235327  0.30339248  0.29182005     0.12600
H1038       H  0.18230857  0.22058934  0.25334583     0.12600
C1039       C  0.37247829  0.75345085  0.76452931    -0.13500
C1040       C  0.37943718  0.77784304  0.78314450     0.08600
C1041       C  0.35515301  0.79333633  0.79629882    -0.13500
C1042       C  0.32524744  0.78527123  0.79049151    -0.13500
C1043       C  0.31850134  0.76126245  0.77156105     0.08600
C1044       C  0.34249921  0.74531582  0.75886414    -0.13500
H1045       H  0.39016312  0.74089069  0.75391243     0.12600
H1046       H  0.35900048  0.81202264  0.81106865     0.12600
H1047       H  0.30734024  0.79800618  0.80056197     0.12600
H1048       H  0.33796086  0.72676351  0.74400279     0.12600
C1049       C  0.64770019  0.75329121  0.76549502    -0.13500
C1050       C  0.64103213  0.78094370  0.77884608     0.08600
C1051       C  0.66544702  0.79939492  0.78713681    -0.13500
C1052       C  0.69520303  0.79071622  0.78195802    -0.13500
C1053       C  0.70163833  0.76334034  0.76823481     0.08600
C1054       C  0.67753430  0.74462424  0.76035939    -0.13500
H1055       H  0.62988580  0.73835704  0.75881572     0.12600
H1056       H  0.66184885  0.82086702  0.79749083     0.12600
H1057       H  0.71321394  0.80559196  0.78830446     0.12600
H1058       H  0.68184628  0.72337559  0.74963747     0.12600
C1059       C  0.51351896  0.95123642  0.92548994    -0.13400
C1060       C  0.51255288  0.93675852  0.90288876    -0.15000
C1061       C  0.21817766  0.33601995  0.80648441    -0.13500
C1062       C  0.22816831  0.36001751  0.78840202     0.08600
C1063       C  0.24328053  0.35271454  0.76186457    -0.13500
C1064       C  0.24849246  0.32266559  0.75397180    -0.13500
C1065       C  0.23887547  0.29898275  0.77234794     0.08600
C1066       C  0.22350161  0.30605005  0.79861490    -0.13500
H1067       H  0.20645670  0.34011563  0.82712284     0.12600
H1068       H  0.25131110  0.37018750  0.74724935     0.12600
H1069       H  0.26060719  0.31784314  0.73362816     0.12600
H1070       H  0.21595710  0.28836308  0.81327006     0.12600
C1071       C  0.21787413  0.64544836  0.80242369    -0.13500
C1072       C  0.22910567  0.62124187  0.78539205     0.08600
C1073       C  0.24517111  0.62820052  0.75932076    -0.13500
C1074       C  0.25060059  0.65818000  0.75123056    -0.13500
C1075       C  0.24005150  0.68205454  0.76885376     0.08600
C1076       C  0.22329444  0.67528821  0.79431292    -0.13500
H1077       H  0.20503784  0.64164583  0.82243618     0.12600
H1078       H  0.25411059  0.61053118  0.74548531     0.12600
H1079       H  0.26368043  0.66280238  0.73145185     0.12600
H1080       H  0.21490807  0.69314420  0.80829835     0.12600
C1081       C  0.08922763  0.49445810  0.96225413    -0.13400
C1082       C  0.11181357  0.49496186  0.94768936    -0.15000
C1083       C  0.64966841  0.23807925  0.76637067    -0.13500
C1084       C  0.64072772  0.21193091  0.78117672     0.08600
C1085       C  0.66299434  0.19080550  0.78868995    -0.13500
C1086       C  0.69328024  0.19583039  0.78206829    -0.13500
C1087       C  0.70223664  0.22225580  0.76792231     0.08600
C1088       C  0.68005550  0.24324927  0.76005126    -0.13500
H1089       H  0.63332507  0.25493704  0.76055297     0.12600
H1090       H  0.65700830  0.17028982  0.79997123     0.12600
H1091       H  0.70972950  0.17933234  0.78853195     0.12600
H1092       H  0.68636727  0.26384872  0.74906551     0.12600
C1093       C  0.35715708  0.19061509  0.79338477    -0.13500
C1094       C  0.38019847  0.21038653  0.78457583     0.08600
C1095       C  0.37189226  0.23635793  0.76897114    -0.13500
C1096       C  0.34158295  0.24247045  0.76278107    -0.13500
C1097       C  0.31874651  0.22263364  0.77159493     0.08600
C1098       C  0.32693989  0.19659940  0.78693473    -0.13500
H1099       H  0.36243633  0.17019733  0.80517934     0.12600
H1100       H  0.38874564  0.25222304  0.76202222     0.12600
H1101       H  0.33589115  0.26273169  0.75084979     0.12600
H1102       H  0.30994263  0.18086655  0.79387920     0.12600
C1103       C  0.51687736  0.09409970  0.94504398    -0.13400
C1104       C  0.51763376  0.07277604  0.96142096    -0.15000
C1105       C  0.76930146  0.62880102  0.76060573    -0.13500
C1106       C  0.79298583  0.62151184  0.77997623     0.08600
C1107       C  0.80877409  0.64542615  0.79352497    -0.13500
C1108       C  0.80139279  0.67536045  0.78770968    -0.13500
C1109       C  0.77794285  0.68240711  0.76828017     0.08600
C1110       C  0.76195394  0.65884525  0.75480282    -0.13500
H1111       H  0.75658355  0.61135038  0.74970181     0.12600
H1112       H  0.82710809  0.64133221  0.80866667     0.12600
H1113       H  0.81415942  0.69305045  0.79821717     0.12600
H1114       H  0.74382816  0.66378579  0.73952326     0.12600
C1115       C  0.76594321  0.32336142  0.75125935    -0.13500
C1116       C  0.77992086  0.30018492  0.76734886     0.08600
C1117       C  0.80060362  0.30772550  0.78958283    -0.13500
C1118       C  0.80764833  0.33781031  0.79517234    -0.13500
C1119       C  0.79420644  0.36122384  0.77867250     0.08600
C1120       C  0.77283723  0.35351524  0.75695498    -0.13500
H1121       H  0.74974992  0.31801716  0.73405657     0.12600
H1122       H  0.81147078  0.29033147  0.80242256     0.12600
H1123       H  0.82381397  0.34261730  0.81250108     0.12600
H1124       H  0.76204435  0.37070863  0.74380496     0.12600
C1125       C  0.95593957  0.49091139  0.89394768    -0.13400
C1126       C  0.97026580  0.49069020  0.91668250    -0.15000
C1127       C  0.80418894  0.33684228  0.19633662    -0.13500
C1128       C  0.79020669  0.36058452  0.21185858     0.08600
C1129       C  0.77198089  0.35331768  0.23630701    -0.13500
C1130       C  0.76706510  0.32330758  0.24424272    -0.13500
C1131       C  0.78041950  0.29981234  0.22815270     0.08600
C1132       C  0.79931266  0.30689411  0.20433806    -0.13500
H1133       H  0.81885265  0.34122751  0.17770464     0.12600
H1134       H  0.76082154  0.37074187  0.24877631     0.12600
H1135       H  0.75230755  0.31831070  0.26271252     0.12600
H1136       H  0.80986685  0.28924161  0.19163824     0.12600
C1137       C  0.77221283  0.62838595  0.23556421    -0.13500
C1138       C  0.78887205  0.62109730  0.20995783     0.08600
C1139       C  0.80085971  0.64506713  0.19311977    -0.13500
C1140       C  0.79575126  0.67503480  0.20105124    -0.13500
C1141       C  0.77867576  0.68212015  0.22620699     0.08600
C1142       C  0.76723651  0.65846239  0.24355433    -0.13500
H1143       H  0.76262350  0.61091011  0.24919901     0.12600
H1144       H  0.81421858  0.64094209  0.17349840     0.12600
H1145       H  0.80499545  0.69271290  0.18740251     0.12600
H1146       H  0.75393069  0.66333996  0.26312782     0.12600
C1147       C  0.89990424  0.48520390  0.04803759    -0.13400
C1148       C  0.92339164  0.48469092  0.03501222    -0.15000
C1149       C  0.66154360  0.77837024  0.19509935    -0.13500
C1150       C  0.63831689  0.76599571  0.21269806     0.08600
C1151       C  0.64668378  0.75061782  0.23881789    -0.13500
C1152       C  0.67708391  0.74725511  0.24659018    -0.13500
C1153       C  0.69997539  0.75908313  0.22849903     0.08600
C1154       C  0.69179190  0.77488731  0.20281595    -0.13500
H1155       H  0.65667856  0.79072622  0.17497234     0.12600
H1156       H  0.62981489  0.74074752  0.25299950     0.12600
H1157       H  0.68283323  0.73467977  0.26644677     0.12600
H1158       H  0.70886596  0.78411321  0.18841536     0.12600
C1159       C  0.35318650  0.78732132  0.20300428    -0.13500
C1160       C  0.37627494  0.76885585  0.21441903     0.08600
C1161       C  0.36790182  0.74493767  0.23293699    -0.13500
C1162       C  0.33759031  0.73946274  0.23940300    -0.13500
C1163       C  0.31477348  0.75781600  0.22777644     0.08600
C1164       C  0.32293943  0.78188764  0.20958805    -0.13500
H1165       H  0.35830893  0.80625455  0.18896108     0.12600
H1166       H  0.38471637  0.73017057  0.24210976     0.12600
H1167       H  0.33185452  0.72074038  0.25359501     0.12600
H1168       H  0.30592727  0.79639225  0.20034460     0.12600
C1169       C  0.51269830  0.88991524  0.06057996    -0.13400
C1170       C  0.51420355  0.91292090  0.04681989    -0.15000
C1171       C  0.81147402  0.77896868  0.34437235    -0.13500
C1172       C  0.79483580  0.76568210  0.36777314     0.08600
C1173       C  0.76928567  0.74916947  0.35984440    -0.13500
C1174       C  0.76120630  0.74545029  0.32961212    -0.13500
C1175       C  0.77836533  0.75814058  0.30649538     0.08600
C1176       C  0.80344285  0.77513598  0.31424647    -0.13500
H1177       H  0.83102022  0.79232417  0.34907988     0.12600
H1178       H  0.75590032  0.73856260  0.37691940     0.12600
H1179       H  0.74182109  0.73201437  0.32415343     0.12600
H1180       H  0.81708273  0.78507303  0.29694598     0.12600
C1181       C  0.77297201  0.74699478  0.63689244    -0.13500
C1182       C  0.79486414  0.76791789  0.62861208     0.08600
C1183       C  0.80842191  0.78496318  0.65160590    -0.13500
C1184       C  0.80103226  0.78066119  0.68180286    -0.13500
C1185       C  0.77972717  0.75931802  0.68996183     0.08600
C1186       C  0.76560580  0.74270283  0.66718193    -0.13500
H1187       H  0.76209549  0.73340909  0.62007874     0.12600
H1188       H  0.82501064  0.80171529  0.64640881     0.12600
H1189       H  0.81224120  0.79373852  0.69881863     0.12600
H1190       H  0.74908308  0.72600929  0.67295722     0.12600
C1191       C  0.96580736  0.90573495  0.49268661    -0.13400
C1192       C  0.95271084  0.88224512  0.49326541    -0.15000
C1193       C  0.80129278  0.18922144  0.65198966    -0.13500
C1194       C  0.78989355  0.20695087  0.62832620     0.08600
C1195       C  0.77392221  0.23286895  0.63601396    -0.13500
C1196       C  0.76899164  0.24034121  0.66618767    -0.13500
C1197       C  0.77988169  0.22219136  0.68951948     0.08600
C1198       C  0.79630171  0.19668657  0.68205718    -0.13500
H1199       H  0.81410198  0.16928644  0.64755914     0.12600
H1200       H  0.76478062  0.24712721  0.61875571     0.12600
H1201       H  0.75612802  0.26014498  0.67139713     0.12600
H1202       H  0.80496855  0.18234288  0.69951227     0.12600
C1203       C  0.79836917  0.19605926  0.31321597    -0.13500
C1204       C  0.78158397  0.22121622  0.30548825     0.08600
C1205       C  0.77128662  0.24002132  0.32853112    -0.13500
C1206       C  0.77715176  0.23347771  0.35875528    -0.13500
C1207       C  0.79366699  0.20799322  0.36675820     0.08600
C1208       C  0.80444285  0.18960857  0.34332071    -0.13500
H1209       H  0.80676776  0.18136440  0.29594472     0.12600
H1210       H  0.75832137  0.25969345  0.32306146     0.12600
H1211       H  0.76853915  0.24827220  0.37580876     0.12600
H1212       H  0.81748448  0.16988089  0.34791054     0.12600
C1213       C  0.90429684  0.04533217  0.49934542    -0.13400
C1214       C  0.92584987  0.02935202  0.49896931    -0.15000
C1215       C  0.22215051  0.79672839  0.65422570    -0.13500
C1216       C  0.22944568  0.77697972  0.63059937     0.08600
C1217       C  0.24233756  0.74937813  0.63834112    -0.13500
C1218       C  0.24774054  0.74193204  0.66851679    -0.13500
C1219       C  0.24067418  0.76188861  0.69187428     0.08600
C1220       C  0.22764004  0.78930494  0.68427536    -0.13500
H1221       H  0.21240070  0.81833196  0.64971568     0.12600
H1222       H  0.24816938  0.73346553  0.62112276     0.12600
H1223       H  0.25787710  0.72057868  0.67367581     0.12600
H1224       H  0.22167005  0.80505902  0.70159060     0.12600
C1225       C  0.24248192  0.74872746  0.36107074    -0.13500
C1226       C  0.23015439  0.77663506  0.36863674     0.08600
C1227       C  0.22131501  0.79553344  0.34478112    -0.13500
C1228       C  0.22517191  0.78719713  0.31475378    -0.13500
C1229       C  0.23809104  0.75970372  0.30735293     0.08600
C1230       C  0.24630971  0.74039032  0.33089069    -0.13500
H1231       H  0.24946721  0.73341604  0.37842596     0.12600
H1232       H  0.21162980  0.81719195  0.34897757     0.12600
H1233       H  0.21853742  0.80252355  0.29724626     0.12600
H1234       H  0.25642395  0.71901051  0.32585898     0.12600
C1235       C  0.11034971  0.93410217  0.49432389    -0.13400
C1236       C  0.08722335  0.94770670  0.49347540    -0.15000
loop_ 
_geom_bond_atom_site_label_1 
_geom_bond_atom_site_label_2 
_geom_bond_distance 
_geom_bond_site_symmetry_2 
_ccdc_geom_bond_type 
N1            N2   1.324       .  A
N1            C5   1.366       .  A
N1           Cu9   2.182       .  S
N2            C3   1.339       .  A
N2           Cu8   2.050       .  S
C3            C4   1.381       .  A
C3            H6   1.080       .  S
C4            C5   1.413       .  A
C4         C1226   1.515       .  S
C5            H7   1.081       .  S
Cu8          N11   2.050       .  S
Cu9          N19   2.182       .  S
Cu10         N12   2.057       .  S
Cu10         N18   2.058       .  S
N11          N12   1.317       .  A
N11          C15   1.343       .  A
N12          C13   1.343       .  A
C13          C14   1.380       .  A
C13          H16   1.082       .  S
C14          C15   1.379       .  A
C14        C1235   1.430       .  S
C15          H17   1.082       .  S
N18          N19   1.325       .  A
N18          C22   1.341       .  A
N19          C20   1.365       .  A
C20          C21   1.411       .  A
C20          H23   1.082       .  S
C21          C22   1.381       .  A
C21        C1216   1.513       .  S
C22          H24   1.080       .  S
N25          N26   1.325       .  A
N25          C29   1.365       .  A
N25         Cu33   2.177       .  S
N26          C27   1.339       .  A
N26         Cu32   2.052       .  S
C27          C28   1.379       .  A
C27          H30   1.080       .  S
C28          C29   1.410       .  A
C28        C1194   1.510       .  S
C29          H31   1.081       .  S
Cu32         N35   2.052       .  S
Cu33         N43   2.176       .  S
Cu34         N36   2.043       .  S
Cu34         N42   2.043       .  S
N35          N36   1.316       .  A
N35          C39   1.344       .  A
N36          C37   1.342       .  A
C37          C38   1.378       .  A
C37          H40   1.082       .  S
C38          C39   1.381       .  A
C38        C1213   1.430       .  S
C39          H41   1.082       .  S
N42          N43   1.323       .  A
N42          C46   1.337       .  A
N43          C44   1.365       .  A
C44          C45   1.411       .  A
C44          H47   1.081       .  S
C45          C46   1.378       .  A
C45        C1207   1.510       .  S
C46          H48   1.080       .  S
N49          N50   1.324       .  A
N49          C53   1.365       .  A
N49         Cu57   2.172       .  S
N50          C51   1.339       .  A
N50         Cu56   2.050       .  S
C51          C52   1.379       .  A
C51          H54   1.081       .  S
C52          C53   1.410       .  A
C52        C1172   1.510       .  S
C53          H55   1.081       .  S
Cu56         N59   2.050       .  S
Cu57         N67   2.172       .  S
Cu58         N60   2.058       .  S
Cu58         N66   2.059       .  S
N59          N60   1.317       .  A
N59          C63   1.344       .  A
N60          C61   1.344       .  A
C61          C62   1.381       .  A
C61          H64   1.082       .  S
C62          C63   1.380       .  A
C62        C1192   1.434       .  S
C63          H65   1.082       .  S
N66          N67   1.326       .  A
N66          C70   1.340       .  A
N67          C68   1.364       .  A
C68          C69   1.408       .  A
C68          H71   1.082       .  S
C69          C70   1.379       .  A
C69        C1182   1.507       .  S
C70          H72   1.081       .  S
N73          N74   1.324       .  A
N73          C77   1.366       .  A
N73         Cu81   2.181       .  S
N74          C75   1.338       .  A
N74         Cu80   2.051       .  S
C75          C76   1.380       .  A
C75          H78   1.080       .  S
C76          C77   1.412       .  A
C76        C1150   1.514       .  S
C77          H79   1.081       .  S
Cu80         N83   2.051       .  S
Cu81         N91   2.181       .  S
Cu82         N84   2.051       .  S
Cu82         N90   2.051       .  S
N83          N84   1.316       .  A
N83          C87   1.344       .  A
N84          C85   1.342       .  A
C85          C86   1.379       .  A
C85          H88   1.082       .  S
C86          C87   1.380       .  A
C86        C1169   1.431       .  S
C87          H89   1.082       .  S
N90          N91   1.325       .  A
N90          C94   1.340       .  A
N91          C92   1.365       .  A
C92          C93   1.411       .  A
C92          H95   1.082       .  S
C93          C94   1.379       .  A
C93        C1160   1.511       .  S
C94          H96   1.081       .  S
N97          N98   1.325       .  A
N97         C101   1.364       .  A
N97        Cu105   2.170       .  S
N98          C99   1.341       .  A
N98        Cu104   2.064       .  S
C99         C100   1.382       .  A
C99         H102   1.080       .  S
C100        C101   1.409       .  A
C100       C1138   1.513       .  S
C101        H103   1.081       .  S
Cu104       N107   2.063       .  S
Cu105       N115   2.169       .  S
Cu106       N108   2.048       .  S
Cu106       N114   2.048       .  S
N107        N108   1.317       .  A
N107        C111   1.344       .  A
N108        C109   1.344       .  A
C109        C110   1.379       .  A
C109        H112   1.082       .  S
C110        C111   1.382       .  A
C110       C1147   1.434       .  S
C111        H113   1.082       .  S
N114        N115   1.324       .  A
N114        C118   1.339       .  A
N115        C116   1.363       .  A
C116        C117   1.408       .  A
C116        H119   1.082       .  S
C117        C118   1.378       .  A
C117       C1128   1.505       .  S
C118        H120   1.081       .  S
N121        N122   1.323       .  A
N121        C125   1.363       .  A
N121       Cu129   2.166       .  S
N122        C123   1.339       .  A
N122       Cu128   2.048       .  S
C123        C124   1.380       .  A
C123        H126   1.080       .  S
C124        C125   1.409       .  A
C124       C1106   1.509       .  S
C125        H127   1.081       .  S
Cu128       N131   2.048       .  S
Cu129       N139   2.166       .  S
Cu130       N132   2.055       .  S
Cu130       N138   2.056       .  S
N131        N132   1.317       .  A
N131        C135   1.342       .  A
N132        C133   1.344       .  A
C133        C134   1.381       .  A
C133        H136   1.082       .  S
C134        C135   1.378       .  A
C134       C1125   1.430       .  S
C135        H137   1.082       .  S
N138        N139   1.325       .  A
N138        C142   1.340       .  A
N139        C140   1.362       .  A
C140        C141   1.406       .  A
C140        H143   1.082       .  S
C141        C142   1.378       .  A
C141       C1119   1.504       .  S
C142        H144   1.081       .  S
N145        N146   1.325       .  A
N145        C149   1.364       .  A
N145       Cu153   2.172       .  S
N146        C147   1.340       .  A
N146       Cu152   2.052       .  S
C147        C148   1.376       .  A
C147        H150   1.082       .  S
C148        C149   1.407       .  A
C148       C1084   1.502       .  S
C149        H151   1.081       .  S
Cu152       N155   2.052       .  S
Cu153       N163   2.173       .  S
Cu154       N156   2.064       .  S
Cu154       N162   2.065       .  S
N155        N156   1.318       .  A
N155        C159   1.344       .  A
N156        C157   1.344       .  A
C157        C158   1.381       .  A
C157        H160   1.082       .  S
C158        C159   1.380       .  A
C158       C1103   1.435       .  S
C159        H161   1.082       .  S
N162        N163   1.326       .  A
N162        C166   1.342       .  A
N163        C164   1.364       .  A
C164        C165   1.408       .  A
C164        H167   1.082       .  S
C165        C166   1.380       .  A
C165       C1094   1.509       .  S
C166        H168   1.082       .  S
N169        N170   1.325       .  A
N169        C173   1.365       .  A
N169       Cu177   2.175       .  S
N170        C171   1.340       .  A
N170       Cu176   2.058       .  S
C171        C172   1.381       .  A
C171        H174   1.080       .  S
C172        C173   1.411       .  A
C172       C1072   1.513       .  S
C173        H175   1.081       .  S
Cu176       N179   2.058       .  S
Cu177       N187   2.175       .  S
Cu178       N180   2.058       .  S
Cu178       N186   2.059       .  S
N179        N180   1.317       .  A
N179        C183   1.345       .  A
N180        C181   1.343       .  A
C181        C182   1.380       .  A
C181        H184   1.082       .  S
C182        C183   1.382       .  A
C182       C1082   1.435       .  S
C183        H185   1.082       .  S
N186        N187   1.324       .  A
N186        C190   1.341       .  A
N187        C188   1.364       .  A
C188        C189   1.410       .  A
C188        H191   1.081       .  S
C189        C190   1.382       .  A
C189       C1062   1.514       .  S
C190        H192   1.080       .  S
N193        N194   1.324       .  A
N193        C197   1.365       .  A
N193       Cu201   2.183       .  S
N194        C195   1.342       .  A
N194       Cu200   2.061       .  S
C195        C196   1.383       .  A
C195        H198   1.080       .  S
C196        C197   1.412       .  A
C196       C1040   1.517       .  S
C197        H199   1.081       .  S
Cu200       N203   2.059       .  S
Cu201       N211   2.182       .  S
Cu202       N204   2.052       .  S
Cu202       N210   2.053       .  S
N203        N204   1.318       .  A
N203        C207   1.344       .  A
N204        C205   1.343       .  A
C205        C206   1.379       .  A
C205        H208   1.082       .  S
C206        C207   1.380       .  A
C206       C1060   1.431       .  S
C207        H209   1.082       .  S
N210        N211   1.324       .  A
N210        C214   1.341       .  A
N211        C212   1.364       .  A
C212        C213   1.411       .  A
C212        H215   1.082       .  S
C213        C214   1.381       .  A
C213       C1050   1.514       .  S
C214        H216   1.080       .  S
N217        N218   1.324       .  A
N217        C221   1.364       .  A
N217       Cu225   2.173       .  S
N218        C219   1.340       .  A
N218       Cu224   2.054       .  S
C219        C220   1.381       .  A
C219        H222   1.080       .  S
C220        C221   1.410       .  A
C220       C1030   1.512       .  S
C221        H223   1.081       .  S
Cu224       N227   2.053       .  S
Cu225       N235   2.173   1_455  S
Cu226       N228   2.050       .  S
Cu226       N234   2.051       .  S
N227        N228   1.317   1_455  A
N227        C231   1.343       .  A
N228        C229   1.342       .  A
C229        C230   1.378   1_655  A
C229        H232   1.082       .  S
C230        C231   1.380       .  A
C230       C1017   1.429       .  S
C231        H233   1.082       .  S
N234        N235   1.324       .  A
N234        C238   1.340       .  A
N235        C236   1.363       .  A
C236        C237   1.409       .  A
C236        H239   1.081       .  S
C237        C238   1.380       .  A
C237       C1020   1.509       .  S
C238        H240   1.080       .  S
C241        C242   1.422       .  A
C241        C246   1.428       .  A
C241       C1033   1.505       .  S
C242        C243   1.423       .  A
C242        C968   1.503       .  S
C243        C244   1.428       .  A
C243       C1008   1.503       .  S
C244        C245   1.426       .  A
C244        C981   1.508       .  S
C245        C246   1.424       .  A
C245        C998   1.502       .  S
C246        C988   1.505       .  S
N247        N248   1.324       .  A
N247        C251   1.365       .  A
N247       Cu255   2.173       .  S
N248        C249   1.338       .  A
N248       Cu254   2.049       .  S
C249        C250   1.380       .  A
C249        H252   1.080       .  S
C250        C251   1.411       .  A
C250        C958   1.511       .  S
C251        H253   1.081       .  S
Cu254       N257   2.049       .  S
Cu255       N265   2.174   1_565  S
Cu256       N258   2.060       .  S
Cu256       N264   2.061       .  S
N257        N258   1.317   1_565  A
N257        C261   1.343       .  A
N258        C259   1.344       .  A
C259        C260   1.381   1_545  A
C259        H262   1.082       .  S
C260        C261   1.379       .  A
C260        C955   1.433       .  S
C261        H263   1.082       .  S
N264        N265   1.325       .  A
N264        C268   1.341       .  A
N265        C266   1.364       .  A
C266        C267   1.409       .  A
C266        H269   1.082       .  S
C267        C268   1.381       .  A
C267       C1011   1.511       .  S
C268        H270   1.081       .  S
C271        C272   1.426       .  A
C271        C276   1.424       .  A
C271        C961   1.500       .  S
C272        C273   1.421       .  A
C272       C1229   1.508       .  S
C273        C274   1.423       .  A
C273        C946   1.499       .  S
C274        C275   1.426       .  A
C274        C926   1.499       .  S
C275        C276   1.423       .  A
C275        C936   1.507       .  S
C276       C1163   1.502       .  S
C277        C278   1.424       .  A
C277        C282   1.421       .  A
C277       C1204   1.498       .  S
C278        C279   1.424       .  A
C278        C916   1.502       .  S
C279        C280   1.421       .  A
C279        C896   1.502       .  S
C280        C281   1.425       .  A
C280        C906   1.503       .  S
C281        C282   1.423       .  A
C281       C1131   1.497       .  S
C282       C1023   1.504       .  S
N283        N284   1.325       .  A
N283        C287   1.365       .  A
N283       Cu291   2.181       .  S
N284        C285   1.340       .  A
N284       Cu290   2.049       .  S
C285        C286   1.377       .  A
C285        H288   1.082       .  S
C286        C287   1.410       .  A
C286        C886   1.508       .  S
C287        H289   1.082       .  S
Cu290       N293   2.048       .  S
Cu291       N301   2.180   1_565  S
Cu292       N294   2.054       .  S
Cu292       N300   2.055       .  S
N293        N294   1.317   1_565  A
N293        C297   1.343       .  A
N294        C295   1.343       .  A
C295        C296   1.380   1_545  A
C295        H298   1.082       .  S
C296        C297   1.378       .  A
C296        C883   1.429       .  S
C297        H299   1.082       .  S
N300        N301   1.324       .  A
N300        C304   1.341       .  A
N301        C302   1.364       .  A
C302        C303   1.411       .  A
C302        H305   1.082       .  S
C303        C304   1.381       .  A
C303        C919   1.513       .  S
C304        H306   1.080       .  S
C307        C308   1.426       .  A
C307        C312   1.421       .  A
C307        C874   1.500       .  S
C308        C309   1.423       .  A
C308       C1175   1.500       .  S
C309        C310   1.422       .  A
C309        C889   1.504       .  S
C310        C311   1.424       .  A
C310       C1153   1.502       .  S
C311        C312   1.422       .  A
C311        C864   1.500       .  S
C312       C1141   1.503       .  S
N313        N314   1.324       .  A
N313        C317   1.363       .  A
N313       Cu321   2.168   1_655  S
N314        C315   1.339       .  A
N314       Cu320   2.055       .  S
C315        C316   1.381       .  A
C315        H318   1.080       .  S
C316        C317   1.409       .  A
C316        C877   1.510       .  S
C317        H319   1.081       .  S
Cu320       N323   2.054       .  S
Cu321       N331   2.168       .  S
Cu322       N324   2.047       .  S
Cu322       N330   2.048       .  S
N323        N324   1.317   1_655  A
N323        C327   1.343       .  A
N324        C325   1.343       .  A
C325        C326   1.379       .  A
C325        H328   1.082       .  S
C326        C327   1.380   1_455  A
C326        C861   1.431       .  S
C327        H329   1.082       .  S
N330        N331   1.325       .  A
N330        C334   1.339       .  A
N331        C332   1.363       .  A
C332        C333   1.407       .  A
C332        H335   1.082       .  S
C333        C334   1.376       .  A
C333        C949   1.501       .  S
C334        H336   1.081       .  S
N337        N338   1.325       .  A
N337        C341   1.365       .  A
N337       Cu345   2.182       .  S
N338        C339   1.341       .  A
N338       Cu344   2.054       .  S
C339        C340   1.379       .  A
C339        H342   1.081       .  S
C340        C341   1.410       .  A
C340       C1001   1.510       .  S
C341        H343   1.082       .  S
Cu344       N347   2.053       .  S
Cu345       N355   2.182   1_554  S
Cu346       N348   2.053       .  S
Cu346       N354   2.054       .  S
N347        N348   1.317   1_554  A
N347        C351   1.344       .  A
N348        C349   1.342       .  A
C349        C350   1.378   1_556  A
C349        H352   1.082       .  S
C350        C351   1.380       .  A
C350        C849   1.431       .  S
C351        H353   1.082       .  S
N354        N355   1.325       .  A
N354        C358   1.341       .  A
N355        C356   1.366       .  A
C356        C357   1.410       .  A
C356        H359   1.082       .  S
C357        C358   1.378       .  A
C357        C852   1.509       .  S
C358        H360   1.082       .  S
C361        C362   1.426       .  A
C361        C366   1.426       .  A
C361       C1065   1.505       .  S
C362        C363   1.425       .  A
C362        C855   1.509       .  S
C363        C364   1.429       .  A
C363       C1097   1.506       .  S
C364        C365   1.427       .  A
C364        C840   1.506       .  S
C365        C366   1.429       .  A
C365        C820   1.513       .  S
C366        C833   1.503       .  S
N367        N368   1.324       .  A
N367        C371   1.365       .  A
N367       Cu375   2.183       .  S
N368        C369   1.340       .  A
N368       Cu374   2.046       .  S
C369        C370   1.380       .  A
C369        H372   1.080       .  S
C370        C371   1.412       .  A
C370        C810   1.513       .  S
C371        H373   1.082       .  S
Cu374       N377   2.045       .  S
Cu375       N385   2.184   1_565  S
Cu376       N378   2.055       .  S
Cu376       N384   2.057       .  S
N377        N378   1.317   1_565  A
N377        C381   1.342       .  A
N378        C379   1.344       .  A
C379        C380   1.381   1_545  A
C379        H382   1.082       .  S
C380        C381   1.378       .  A
C380        C808   1.429       .  S
C381        H383   1.082       .  S
N384        N385   1.325       .  A
N384        C388   1.341       .  A
N385        C386   1.365       .  A
C386        C387   1.412       .  A
C386        H389   1.081       .  S
C387        C388   1.381       .  A
C387        C843   1.515       .  S
C388        H390   1.080       .  S
C391        C392   1.429       .  A
C391        C396   1.428       .  A
C391        C813   1.502       .  S
C392        C393   1.423       .  A
C392       C1219   1.508       .  S
C393        C394   1.423       .  A
C393        C798   1.504       .  S
C394        C395   1.428       .  A
C394       C1075   1.505       .  S
C395        C396   1.426       .  A
C395        C788   1.505       .  S
C396       C1043   1.508       .  S
N397        N398   1.325       .  A
N397        C401   1.365       .  A
N397       Cu405   2.182   1_655  S
N398        C399   1.340       .  A
N398       Cu404   2.049       .  S
C399        C400   1.378       .  A
C399        H402   1.081       .  S
C400        C401   1.410       .  A
C400        C778   1.509       .  S
C401        H403   1.082       .  S
Cu404       N407   2.048       .  S
Cu405       N415   2.182       .  S
Cu406       N408   2.052       .  S
Cu406       N414   2.053       .  S
N407        N408   1.316   1_655  A
N407        C411   1.342       .  A
N408        C409   1.343       .  A
C409        C410   1.381       .  A
C409        H412   1.082       .  S
C410        C411   1.379   1_455  A
C410        C775   1.430       .  S
C411        H413   1.082       .  S
N414        N415   1.324       .  A
N414        C418   1.339       .  A
N415        C416   1.366       .  A
C416        C417   1.412       .  A
C416        H419   1.081       .  S
C417        C418   1.380       .  A
C417        C801   1.514       .  S
C418        H420   1.080       .  S
N421        N422   1.325       .  A
N421        C425   1.363       .  A
N421       Cu429   2.172   1_655  S
N422        C423   1.340       .  A
N422       Cu428   2.053       .  S
C423        C424   1.379       .  A
C423        H426   1.081       .  S
C424        C425   1.408       .  A
C424        C766   1.506       .  S
C425        H427   1.082       .  S
Cu428       N431   2.052       .  S
Cu429       N439   2.172       .  S
Cu430       N432   2.053       .  S
Cu430       N438   2.053       .  S
N431        N432   1.317   1_655  A
N431        C435   1.344       .  A
N432        C433   1.342       .  A
C433        C434   1.379       .  A
C433        H436   1.082       .  S
C434        C435   1.380   1_455  A
C434        C763   1.431       .  S
C435        H437   1.082       .  S
N438        N439   1.324       .  A
N438        C442   1.340       .  A
N439        C440   1.364       .  A
C440        C441   1.409       .  A
C440        H443   1.081       .  S
C441        C442   1.380       .  A
C441        C830   1.510       .  S
C442        H444   1.081       .  S
C445        C446   1.419       .  A
C445        C450   1.424       .  A
C445       C1197   1.502       .  S
C446        C447   1.419       .  A
C446        C769   1.498       .  S
C447        C448   1.423       .  A
C447       C1116   1.497       .  S
C448        C449   1.422       .  A
C448        C744   1.503       .  S
C449        C450   1.425       .  A
C449       C1087   1.502       .  S
C450        C754   1.500       .  S
N451        N452   1.322       .  A
N451        C455   1.364       .  A
N451       Cu459   2.163       .  S
N452        C453   1.337       .  A
N452       Cu458   2.040       .  S
C453        C454   1.378       .  A
C453        H456   1.081       .  S
C454        C455   1.410       .  A
C454        C734   1.506       .  S
C455        H457   1.081       .  S
Cu458       N461   2.041       .  S
Cu459       N469   2.165   1_565  S
Cu460       N462   2.060       .  S
Cu460       N468   2.062       .  S
N461        N462   1.317   1_565  A
N461        C465   1.340       .  A
N462        C463   1.345       .  A
C463        C464   1.382   1_545  A
C463        H466   1.082       .  S
C464        C465   1.376       .  A
C464        C731   1.429       .  S
C465        H467   1.082       .  S
N468        N469   1.325       .  A
N468        C472   1.341       .  A
N469        C470   1.361       .  A
C470        C471   1.407       .  A
C470        H473   1.081       .  S
C471        C472   1.382       .  A
C471        C757   1.509       .  S
C472        H474   1.080       .  S
C475        C476   1.418       .  A
C475        C480   1.422       .  A
C475       C1185   1.500       .  S
C476        C477   1.421       .  A
C476        C781   1.502       .  S
C477        C478   1.425       .  A
C477       C1109   1.498       .  S
C478        C479   1.424       .  A
C478        C722   1.503       .  S
C479        C480   1.427       .  A
C479       C1053   1.506       .  S
C480        C737   1.500       .  S
N481        N482   1.324       .  A
N481        C485   1.364       .  A
N481       Cu489   2.172       .  S
N482        C483   1.340       .  A
N482       Cu488   2.057       .  S
C483        C484   1.382       .  A
C483        H486   1.080       .  S
C484        C485   1.410       .  A
C484        C791   1.513       .  S
C485        H487   1.081       .  S
Cu488       N491   2.057       .  S
Cu489       N499   2.172   1_556  S
Cu490       N492   2.054       .  S
Cu490       N498   2.056       .  S
N491        N492   1.317   1_556  A
N491        C495   1.344       .  A
N492        C493   1.344       .  A
C493        C494   1.380   1_554  A
C493        H496   1.082       .  S
C494        C495   1.381       .  A
C494        C720   1.433   1_556  S
C495        H497   1.082       .  S
N498        N499   1.324       .  A
N498        C502   1.340       .  A
N499        C500   1.364       .  A
C500        C501   1.409       .  A
C500        H503   1.081       .  S
C501        C502   1.381       .  A
C501        C939   1.511       .  S
C502        H504   1.080       .  S
N505        N506   1.324       .  A
N505        C509   1.364       .  A
N505       Cu513   2.172   1_554  S
N506        C507   1.338       .  A
N506       Cu512   2.050       .  S
C507        C508   1.380       .  A
C507        H510   1.078       .  S
C508        C509   1.410       .  A
C508        C909   1.510       .  S
C509        H511   1.082       .  S
Cu512       N515   2.049       .  S
Cu513       N523   2.172       .  S
Cu514       N516   2.053       .  S
Cu514       N522   2.053       .  S
N515        N516   1.316   1_554  A
N515        C519   1.343       .  A
N516        C517   1.344       .  A
C517        C518   1.381       .  A
C517        H520   1.082       .  S
C518        C519   1.380   1_556  A
C518        C717   1.433       .  S
C519        H521   1.082       .  S
N522        N523   1.324       .  A
N522        C526   1.338       .  A
N523        C524   1.364       .  A
C524        C525   1.410       .  A
C524        H527   1.081       .  S
C525        C526   1.380       .  A
C525        C747   1.511       .  S
C526        H528   1.080       .  S
N529        N530   1.325       .  A
N529        C533   1.363       .  A
N529       Cu537   2.170   1_554  S
N530        C531   1.340       .  A
N530       Cu536   2.058       .  S
C531        C532   1.381       .  A
C531        H534   1.080       .  S
C532        C533   1.408       .  A
C532        C867   1.509       .  S
C533        H535   1.081       .  S
Cu536       N539   2.057       .  S
Cu537       N547   2.170       .  S
Cu538       N540   2.045       .  S
Cu538       N546   2.046       .  S
N539        N540   1.317   1_554  A
N539        C543   1.344       .  A
N540        C541   1.341       .  A
C541        C542   1.377       .  A
C541        H544   1.082       .  S
C542        C543   1.381   1_556  A
C542        C715   1.429       .  S
C543        H545   1.082       .  S
N546        N547   1.324       .  A
N546        C550   1.340       .  A
N547        C548   1.363       .  A
C548        C549   1.407       .  A
C548        H551   1.082       .  S
C549        C550   1.377       .  A
C549        C725   1.503       .  S
C550        H552   1.081       .  S
N553        N554   1.325       .  A
N553        C557   1.364       .  A
N553       Cu561   2.175       .  S
N554        C555   1.338       .  A
N554       Cu560   2.052       .  S
C555        C556   1.379       .  A
C555        H558   1.080       .  S
C556        C557   1.410       .  A
C556        C899   1.510       .  S
C557        H559   1.082       .  S
Cu560       N563   2.051       .  S
Cu561       N571   2.175       .  S
Cu562       N564   2.052       .  S
Cu562       N570   2.053       .  S
N563        N564   1.317       .  A
N563        C567   1.344       .  A
N564        C565   1.342       .  A
C565        C566   1.379       .  A
C565        H568   1.082       .  S
C566        C567   1.381       .  A
C566        C714   1.432       .  S
C567        H569   1.082       .  S
N570        N571   1.323       .  A
N570        C574   1.340       .  A
N571        C572   1.365       .  A
C572        C573   1.411       .  A
C572        H575   1.081       .  S
C573        C574   1.381       .  A
C573        C978   1.514       .  S
C574        H576   1.080       .  S
N577        N578   1.324       .  A
N577        C581   1.362       .  A
N577       Cu585   2.169       .  S
N578        C579   1.341       .  A
N578       Cu584   2.054       .  S
C579        C580   1.380       .  A
C579        H582   1.081       .  S
C580        C581   1.408       .  A
C580        C929   1.508       .  S
C581        H583   1.082       .  S
Cu584       N587   2.053       .  S
Cu585       N595   2.170       .  S
Cu586       N588   2.063       .  S
Cu586       N594   2.064       .  S
N587        N588   1.317       .  A
N587        C591   1.343       .  A
N588        C589   1.345       .  A
C589        C590   1.382       .  A
C589        H592   1.082       .  S
C590        C591   1.379       .  A
C590        C711   1.434       .  S
C591        H593   1.082       .  S
N594        N595   1.325       .  A
N594        C598   1.340       .  A
N595        C596   1.364       .  A
C596        C597   1.410       .  A
C596        H599   1.081       .  S
C597        C598   1.383       .  A
C597        C991   1.514       .  S
C598        H600   1.080       .  S
N601        N602   1.325       .  A
N601        C605   1.364       .  A
N601       Cu609   2.180       .  S
N602        C603   1.341       .  A
N602       Cu608   2.052       .  S
C603        C604   1.378       .  A
C603        H606   1.082       .  S
C604        C605   1.408       .  A
C604        C971   1.506       .  S
C605        H607   1.082       .  S
Cu608       N611   2.051       .  S
Cu609       N619   2.181       .  S
Cu610       N612   2.064       .  S
Cu610       N618   2.065       .  S
N611        N612   1.318       .  A
N611        C615   1.343       .  A
N612        C613   1.345       .  A
C613        C614   1.382       .  A
C613        H616   1.082       .  S
C614        C615   1.379       .  A
C614        C709   1.433       .  S
C615        H617   1.082       .  S
N618        N619   1.325       .  A
N618        C622   1.342       .  A
N619        C620   1.366       .  A
C620        C621   1.412       .  A
C620        H623   1.081       .  S
C621        C622   1.383       .  A
C621        C823   1.518       .  S
C622        H624   1.080       .  S
O625       Cu633   2.003   1_645  S
O625        C635   1.276       .  A
O626       Cu633   2.005       .  S
O626        C636   1.276       .  A
O627       Cu633   2.011   1_655  S
O627        C637   1.277       .  A
O628       Cu633   2.007   1_545  S
O628        C638   1.276       .  A
O629       Cu634   2.003   1_545  S
O629        C638   1.275       .  A
O630       Cu634   2.004   1_655  S
O630        C637   1.276       .  A
O631       Cu634   1.998       .  S
O631        C636   1.275       .  A
O632       Cu634   2.000   1_645  S
O632        C635   1.275       .  A
Cu633      Cu634   2.382       .  S
C635       C1214   1.428       .  S
C636       C1236   1.428       .  S
C637       C1191   1.432       .  S
C638        C710   1.431       .  S
O639       Cu647   2.000   1_556  S
O639        C649   1.275       .  A
O640       Cu647   2.001   1_545  S
O640        C650   1.275       .  A
O641       Cu647   2.004   1_546  S
O641        C651   1.276       .  A
O642       Cu647   2.001       .  S
O642        C652   1.275       .  A
O643       Cu648   2.006       .  S
O643        C652   1.276       .  A
O644       Cu648   2.010   1_546  S
O644        C651   1.277       .  A
O645       Cu648   2.007   1_545  S
O645        C650   1.276       .  A
O646       Cu648   2.004   1_556  S
O646        C649   1.276       .  A
Cu647      Cu648   2.382       .  S
C649       C1059   1.429       .  S
C650        C713   1.430       .  S
C651       C1104   1.433       .  S
C652       C1170   1.429       .  S
O653       Cu661   2.002   1_655  S
O653        C663   1.275       .  A
O654       Cu661   2.005   1_556  S
O654        C664   1.276       .  A
O655       Cu661   2.006   1_656  S
O655        C665   1.276       .  A
O656       Cu661   2.009       .  S
O656        C666   1.277       .  A
O657       Cu662   2.002   1_554  S
O657        C666   1.275       .  A
O658       Cu662   1.999   1_655  S
O658        C665   1.275       .  A
O659       Cu662   2.010       .  S
O659        C664   1.277       .  A
O660       Cu662   2.011   1_654  S
O660        C663   1.277       .  A
Cu661      Cu662   2.381   1_554  S
C663       C1148   1.432       .  S
C664       C1081   1.433       .  S
C665       C1126   1.429       .  S
C666        C712   1.432       .  S
O667       Cu675   2.004       .  S
O667        C677   1.276       .  A
O668       Cu675   2.005       .  S
O668        C678   1.276   1_556  A
O669       Cu675   2.002       .  S
O669        C679   1.275   1_556  A
O670       Cu675   2.002       .  S
O670        C680   1.275       .  A
O671       Cu676   2.009       .  S
O671        C680   1.277   1_554  A
O672       Cu676   2.008       .  S
O672        C679   1.277       .  A
O673       Cu676   1.998       .  S
O673        C678   1.275       .  A
O674       Cu676   1.997       .  S
O674        C677   1.274   1_554  A
Cu675      Cu676   2.382   1_556  S
C677        C716   1.427       .  S
C678        C850   1.429       .  S
C679        C719   1.431       .  S
C680        C718   1.431       .  S
O681       Cu689   1.998       .  S
O681        C691   1.275       .  A
O682       Cu689   1.999       .  S
O682        C692   1.275       .  A
O683       Cu689   2.004       .  S
O683        C693   1.276       .  A
O684       Cu689   2.005       .  S
O684        C694   1.276       .  A
O685       Cu690   2.000       .  S
O685        C694   1.275   1_655  A
O686       Cu690   2.000       .  S
O686        C693   1.275   1_655  A
O687       Cu690   2.006       .  S
O687        C692   1.276   1_655  A
O688       Cu690   2.002       .  S
O688        C691   1.276   1_655  A
Cu689      Cu690   2.382   1_455  S
C691       C1018   1.427       .  S
C692        C776   1.429       .  S
C693        C764   1.429       .  S
C694        C862   1.429       .  S
O695       Cu703   1.997       .  S
O695        C705   1.275   1_545  A
O696       Cu703   1.995       .  S
O696        C706   1.275   1_545  A
O697       Cu703   2.004       .  S
O697        C707   1.276   1_545  A
O698       Cu703   1.999       .  S
O698        C708   1.275   1_545  A
O699       Cu704   2.002       .  S
O699        C708   1.276       .  A
O700       Cu704   2.007       .  S
O700        C707   1.276       .  A
O701       Cu704   2.003       .  S
O701        C706   1.276       .  A
O702       Cu704   2.004       .  S
O702        C705   1.276       .  A
Cu703      Cu704   2.383   1_545  S
C705        C807   1.427       .  S
C706        C884   1.427       .  S
C707        C956   1.431       .  S
C708        C732   1.427       .  S
C709        C710   1.203       .  T
C711        C712   1.204       .  T
C713        C714   1.203       .  T
C715        C716   1.201       .  T
C717        C718   1.203       .  T
C719        C720   1.204       .  T
C721        C722   1.402       .  A
C721        C726   1.407       .  A
C721        H727   1.082       .  S
C722        C723   1.411       .  A
C723        C724   1.408       .  A
C723        H728   1.083       .  S
C724        C725   1.404       .  A
C724        H729   1.083       .  S
C725        C726   1.415       .  A
C726        H730   1.082       .  S
C731        C732   1.201       .  T
C733        C734   1.406       .  A
C733        C738   1.409       .  A
C733        H739   1.082       .  S
C734        C735   1.417       .  A
C735        C736   1.404       .  A
C735        H740   1.080       .  S
C736        C737   1.399       .  A
C736        H741   1.083       .  S
C737        C738   1.411       .  A
C738        H742   1.083       .  S
C743        C744   1.411       .  A
C743        C748   1.411       .  A
C743        H749   1.083       .  S
C744        C745   1.399       .  A
C745        C746   1.403       .  A
C745        H750   1.083       .  S
C746        C747   1.417       .  A
C746        H751   1.079       .  S
C747        C748   1.407       .  A
C748        H752   1.082       .  S
C753        C754   1.409       .  A
C753        C758   1.409       .  A
C753        H759   1.083       .  S
C754        C755   1.400       .  A
C755        C756   1.406       .  A
C755        H760   1.083       .  S
C756        C757   1.417       .  A
C756        H761   1.080       .  S
C757        C758   1.407       .  A
C758        H762   1.082       .  S
C763        C764   1.202       .  T
C765        C766   1.405       .  A
C765        C770   1.408       .  A
C765        H771   1.083       .  S
C766        C767   1.417       .  A
C767        C768   1.406       .  A
C767        H772   1.080       .  S
C768        C769   1.399       .  A
C768        H773   1.083       .  S
C769        C770   1.409       .  A
C770        H774   1.083       .  S
C775        C776   1.202       .  T
C777        C778   1.418       .  A
C777        C782   1.408       .  A
C777        H783   1.081       .  S
C778        C779   1.405       .  A
C779        C780   1.409       .  A
C779        H784   1.082       .  S
C780        C781   1.410       .  A
C780        H785   1.083       .  S
C781        C782   1.400       .  A
C782        H786   1.083       .  S
C787        C788   1.401       .  A
C787        C792   1.405       .  A
C787        H793   1.083       .  S
C788        C789   1.411       .  A
C789        C790   1.412       .  A
C789        H794   1.083       .  S
C790        C791   1.408       .  A
C790        H795   1.082       .  S
C791        C792   1.417       .  A
C792        H796   1.079       .  S
C797        C798   1.411       .  A
C797        C802   1.412       .  A
C797        H803   1.083       .  S
C798        C799   1.399       .  A
C799        C800   1.406       .  A
C799        H804   1.083       .  S
C800        C801   1.418       .  A
C800        H805   1.079       .  S
C801        C802   1.407       .  A
C802        H806   1.082       .  S
C807        C808   1.201       .  T
C809        C810   1.407       .  A
C809        C814   1.410       .  A
C809        H815   1.082       .  S
C810        C811   1.419       .  A
C811        C812   1.407       .  A
C811        H816   1.080       .  S
C812        C813   1.399       .  A
C812        H817   1.083       .  S
C813        C814   1.410       .  A
C814        H818   1.083       .  S
C819        C820   1.413       .  A
C819        C824   1.415       .  A
C819        H825   1.083       .  S
C820        C821   1.402       .  A
C821        C822   1.408       .  A
C821        H826   1.082       .  S
C822        C823   1.418       .  A
C822        H827   1.079       .  S
C823        C824   1.409       .  A
C824        H828   1.082       .  S
C829        C830   1.406       .  A
C829        C834   1.411       .  A
C829        H835   1.082       .  S
C830        C831   1.417       .  A
C831        C832   1.407       .  A
C831        H836   1.081       .  S
C832        C833   1.400       .  A
C832        H837   1.083       .  S
C833        C834   1.411       .  A
C834        H838   1.083       .  S
C839        C840   1.411       .  A
C839        C844   1.411       .  A
C839        H845   1.083       .  S
C840        C841   1.401       .  A
C841        C842   1.407       .  A
C841        H846   1.083       .  S
C842        C843   1.419       .  A
C842        H847   1.080       .  S
C843        C844   1.407       .  A
C844        H848   1.082       .  S
C849        C850   1.202       .  T
C851        C852   1.416       .  A
C851        C856   1.409       .  A
C851        H857   1.082       .  S
C852        C853   1.406       .  A
C853        C854   1.412       .  A
C853        H858   1.083       .  S
C854        C855   1.412       .  A
C854        H859   1.083       .  S
C855        C856   1.402       .  A
C856        H860   1.083       .  S
C861        C862   1.202       .  T
C863        C864   1.399       .  A
C863        C868   1.405       .  A
C863        H869   1.083       .  S
C864        C865   1.410       .  A
C865        C866   1.410       .  A
C865        H870   1.083       .  S
C866        C867   1.407       .  A
C866        H871   1.082       .  S
C867        C868   1.417       .  A
C868        H872   1.080       .  S
C873        C874   1.399       .  A
C873        C878   1.405       .  A
C873        H879   1.083       .  S
C874        C875   1.410       .  A
C875        C876   1.409       .  A
C875        H880   1.083       .  S
C876        C877   1.407       .  A
C876        H881   1.082       .  S
C877        C878   1.418       .  A
C878        H882   1.079       .  S
C883        C884   1.201       .  T
C885        C886   1.417       .  A
C885        C890   1.409       .  A
C885        H891   1.082       .  S
C886        C887   1.405       .  A
C887        C888   1.411       .  A
C887        H892   1.083       .  S
C888        C889   1.412       .  A
C888        H893   1.083       .  S
C889        C890   1.401       .  A
C890        H894   1.083       .  S
C895        C896   1.399       .  A
C895        C900   1.404       .  A
C895        H901   1.083       .  S
C896        C897   1.411       .  A
C897        C898   1.410       .  A
C897        H902   1.083       .  S
C898        C899   1.407       .  A
C898        H903   1.082       .  S
C899        C900   1.417       .  A
C900        H904   1.080       .  S
C905        C906   1.407       .  A
C905        C910   1.410       .  A
C905        H911   1.092       .  S
C906        C907   1.403       .  A
C907        C908   1.403       .  A
C907        H912   1.073       .  S
C908        C909   1.414       .  A
C908        H913   1.091       .  S
C909        C910   1.410       .  A
C910        H914   1.072       .  S
C915        C916   1.410       .  A
C915        C920   1.410       .  A
C915        H921   1.083       .  S
C916        C917   1.399       .  A
C917        C918   1.407       .  A
C917        H922   1.083       .  S
C918        C919   1.419       .  A
C918        H923   1.080       .  S
C919        C920   1.407       .  A
C920        H924   1.082       .  S
C925        C926   1.409       .  A
C925        C930   1.408       .  A
C925        H931   1.083       .  S
C926        C927   1.400       .  A
C927        C928   1.407       .  A
C927        H932   1.083       .  S
C928        C929   1.417       .  A
C928        H933   1.080       .  S
C929        C930   1.406       .  A
C930        H934   1.082       .  S
C935        C936   1.412       .  A
C935        C940   1.411       .  A
C935        H941   1.083       .  S
C936        C937   1.401       .  A
C937        C938   1.404       .  A
C937        H942   1.082       .  S
C938        C939   1.416       .  A
C938        H943   1.080       .  S
C939        C940   1.407       .  A
C940        H944   1.082       .  S
C945        C946   1.400       .  A
C945        C950   1.406       .  A
C945        H951   1.083       .  S
C946        C947   1.410       .  A
C947        C948   1.408       .  A
C947        H952   1.083       .  S
C948        C949   1.404       .  A
C948        H953   1.083       .  S
C949        C950   1.415       .  A
C950        H954   1.082       .  S
C955        C956   1.203       .  T
C957        C958   1.407       .  A
C957        C962   1.411       .  A
C957        H963   1.082       .  S
C958        C959   1.418       .  A
C959        C960   1.404       .  A
C959        H964   1.079       .  S
C960        C961   1.398       .  A
C960        H965   1.083       .  S
C961        C962   1.410       .  A
C962        H966   1.083       .  S
C967        C968   1.402       .  A
C967        C972   1.408       .  A
C967        H973   1.083       .  S
C968        C969   1.410       .  A
C969        C970   1.408       .  A
C969        H974   1.083       .  S
C970        C971   1.405       .  A
C970        H975   1.083       .  S
C971        C972   1.416       .  A
C972        H976   1.082       .  S
C977        C978   1.407       .  A
C977        C982   1.412       .  A
C977        H983   1.082       .  S
C978        C979   1.418       .  A
C979        C980   1.406       .  A
C979        H984   1.079       .  S
C980        C981   1.401       .  A
C980        H985   1.083       .  S
C981        C982   1.412       .  A
C982        H986   1.083       .  S
C987        C988   1.400       .  A
C987        C992   1.405       .  A
C987        H993   1.083       .  S
C988        C989   1.411       .  A
C989        C990   1.412       .  A
C989        H994   1.083       .  S
C990        C991   1.408       .  A
C990        H995   1.082       .  S
C991        C992   1.417       .  A
C992        H996   1.080       .  S
C997        C998   1.410       .  A
C997       C1002   1.410       .  A
C997       H1003   1.083       .  S
C998        C999   1.400       .  A
C999       C1000   1.408       .  A
C999       H1004   1.083       .  S
C1000      C1001   1.418       .  A
C1000      H1005   1.081       .  S
C1001      C1002   1.406       .  A
C1002      H1006   1.082       .  S
C1007      C1008   1.400       .  A
C1007      C1012   1.407       .  A
C1007      H1013   1.083       .  S
C1008      C1009   1.410       .  A
C1009      C1010   1.410       .  A
C1009      H1014   1.083       .  S
C1010      C1011   1.407       .  A
C1010      H1015   1.082       .  S
C1011      C1012   1.417       .  A
C1012      H1016   1.081       .  S
C1017      C1018   1.201       .  T
C1019      C1020   1.417       .  A
C1019      C1024   1.405       .  A
C1019      H1025   1.080       .  S
C1020      C1021   1.407       .  A
C1021      C1022   1.410       .  A
C1021      H1026   1.082       .  S
C1022      C1023   1.410       .  A
C1022      H1027   1.083       .  S
C1023      C1024   1.401       .  A
C1024      H1028   1.082       .  S
C1029      C1030   1.407       .  A
C1029      C1034   1.411       .  A
C1029      H1035   1.082       .  S
C1030      C1031   1.418       .  A
C1031      C1032   1.406       .  A
C1031      H1036   1.080       .  S
C1032      C1033   1.400       .  A
C1032      H1037   1.083       .  S
C1033      C1034   1.411       .  A
C1034      H1038   1.083       .  S
C1039      C1040   1.408       .  A
C1039      C1044   1.413       .  A
C1039      H1045   1.082       .  S
C1040      C1041   1.419       .  A
C1041      C1042   1.410       .  A
C1041      H1046   1.080       .  S
C1042      C1043   1.401       .  A
C1042      H1047   1.083       .  S
C1043      C1044   1.411       .  A
C1044      H1048   1.083       .  S
C1049      C1050   1.407       .  A
C1049      C1054   1.410       .  A
C1049      H1055   1.082       .  S
C1050      C1051   1.418       .  A
C1051      C1052   1.407       .  A
C1051      H1056   1.080       .  S
C1052      C1053   1.401       .  A
C1052      H1057   1.083       .  S
C1053      C1054   1.410       .  A
C1054      H1058   1.083       .  S
C1059      C1060   1.202       .  T
C1061      C1062   1.418       .  A
C1061      C1066   1.408       .  A
C1061      H1067   1.080       .  S
C1062      C1063   1.407       .  A
C1063      C1064   1.411       .  A
C1063      H1068   1.082       .  S
C1064      C1065   1.410       .  A
C1064      H1069   1.083       .  S
C1065      C1066   1.400       .  A
C1066      H1070   1.083       .  S
C1071      C1072   1.418       .  A
C1071      C1076   1.406       .  A
C1071      H1077   1.079       .  S
C1072      C1073   1.408       .  A
C1073      C1074   1.412       .  A
C1073      H1078   1.082       .  S
C1074      C1075   1.411       .  A
C1074      H1079   1.083       .  S
C1075      C1076   1.399       .  A
C1076      H1080   1.083       .  S
C1081      C1082   1.205       .  T
C1083      C1084   1.404       .  A
C1083      C1088   1.409       .  A
C1083      H1089   1.083       .  S
C1084      C1085   1.414       .  A
C1085      C1086   1.407       .  A
C1085      H1090   1.082       .  S
C1086      C1087   1.401       .  A
C1086      H1091   1.082       .  S
C1087      C1088   1.412       .  A
C1088      H1092   1.083       .  S
C1093      C1094   1.416       .  A
C1093      C1098   1.408       .  A
C1093      H1099   1.082       .  S
C1094      C1095   1.406       .  A
C1095      C1096   1.411       .  A
C1095      H1100   1.082       .  S
C1096      C1097   1.411       .  A
C1096      H1101   1.083       .  S
C1097      C1098   1.402       .  A
C1098      H1102   1.083       .  S
C1103      C1104   1.204       .  T
C1105      C1106   1.407       .  A
C1105      C1110   1.409       .  A
C1105      H1111   1.082       .  S
C1106      C1107   1.418       .  A
C1107      C1108   1.405       .  A
C1107      H1112   1.079       .  S
C1108      C1109   1.398       .  A
C1108      H1113   1.083       .  S
C1109      C1110   1.409       .  A
C1110      H1114   1.083       .  S
C1115      C1116   1.409       .  A
C1115      C1120   1.408       .  A
C1115      H1121   1.083       .  S
C1116      C1117   1.399       .  A
C1117      C1118   1.406       .  A
C1117      H1122   1.083       .  S
C1118      C1119   1.416       .  A
C1118      H1123   1.081       .  S
C1119      C1120   1.405       .  A
C1120      H1124   1.083       .  S
C1125      C1126   1.202       .  T
C1127      C1128   1.417       .  A
C1127      C1132   1.405       .  A
C1127      H1133   1.081       .  S
C1128      C1129   1.405       .  A
C1129      C1130   1.407       .  A
C1129      H1134   1.082       .  S
C1130      C1131   1.409       .  A
C1130      H1135   1.083       .  S
C1131      C1132   1.399       .  A
C1132      H1136   1.083       .  S
C1137      C1138   1.408       .  A
C1137      C1142   1.411       .  A
C1137      H1143   1.082       .  S
C1138      C1139   1.418       .  A
C1139      C1140   1.407       .  A
C1139      H1144   1.080       .  S
C1140      C1141   1.399       .  A
C1140      H1145   1.083       .  S
C1141      C1142   1.411       .  A
C1142      H1146   1.083       .  S
C1147      C1148   1.204       .  T
C1149      C1150   1.419       .  A
C1149      C1154   1.405       .  A
C1149      H1155   1.079       .  S
C1150      C1151   1.407       .  A
C1151      C1152   1.412       .  A
C1151      H1156   1.082       .  S
C1152      C1153   1.411       .  A
C1152      H1157   1.083       .  S
C1153      C1154   1.399       .  A
C1154      H1158   1.083       .  S
C1159      C1160   1.418       .  A
C1159      C1164   1.408       .  A
C1159      H1165   1.080       .  S
C1160      C1161   1.406       .  A
C1161      C1162   1.410       .  A
C1161      H1166   1.082       .  S
C1162      C1163   1.410       .  A
C1162      H1167   1.083       .  S
C1163      C1164   1.400       .  A
C1164      H1168   1.083       .  S
C1169      C1170   1.202       .  T
C1171      C1172   1.418       .  A
C1171      C1176   1.406       .  A
C1171      H1177   1.080       .  S
C1172      C1173   1.406       .  A
C1173      C1174   1.410       .  A
C1173      H1178   1.082       .  S
C1174      C1175   1.410       .  A
C1174      H1179   1.083       .  S
C1175      C1176   1.399       .  A
C1176      H1180   1.083       .  S
C1181      C1182   1.406       .  A
C1181      C1186   1.410       .  A
C1181      H1187   1.082       .  S
C1182      C1183   1.417       .  A
C1183      C1184   1.406       .  A
C1183      H1188   1.081       .  S
C1184      C1185   1.399       .  A
C1184      H1189   1.083       .  S
C1185      C1186   1.410       .  A
C1186      H1190   1.083       .  S
C1191      C1192   1.204       .  T
C1193      C1194   1.418       .  A
C1193      C1198   1.406       .  A
C1193      H1199   1.080       .  S
C1194      C1195   1.406       .  A
C1195      C1196   1.410       .  A
C1195      H1200   1.082       .  S
C1196      C1197   1.410       .  A
C1196      H1201   1.083       .  S
C1197      C1198   1.399       .  A
C1198      H1202   1.083       .  S
C1203      C1204   1.397       .  A
C1203      C1208   1.405       .  A
C1203      H1209   1.083       .  S
C1204      C1205   1.410       .  A
C1205      C1206   1.409       .  A
C1205      H1210   1.083       .  S
C1206      C1207   1.406       .  A
C1206      H1211   1.083       .  S
C1207      C1208   1.419       .  A
C1208      H1212   1.079       .  S
C1213      C1214   1.202       .  T
C1215      C1216   1.417       .  A
C1215      C1220   1.407       .  A
C1215      H1221   1.080       .  S
C1216      C1217   1.407       .  A
C1217      C1218   1.412       .  A
C1217      H1222   1.082       .  S
C1218      C1219   1.412       .  A
C1218      H1223   1.083       .  S
C1219      C1220   1.401       .  A
C1220      H1224   1.082       .  S
C1225      C1226   1.408       .  A
C1225      C1230   1.413       .  A
C1225      H1231   1.082       .  S
C1226      C1227   1.419       .  A
C1227      C1228   1.406       .  A
C1227      H1232   1.079       .  S
C1228      C1229   1.400       .  A
C1228      H1233   1.083       .  S
C1229      C1230   1.412       .  A
C1230      H1234   1.083       .  S
C1235      C1236   1.202       .  T
