geometry optimzed in LAMMPS
_audit_creation_date              2020-12-01 
_audit_creation_method            'lammps2cif' 
_symmetry_space_group_name_H-M    'P1' 
_symmetry_Int_Tables_number       1 
_symmetry_cell_setting            triclinic 
loop_ 
_symmetry_equiv_pos_as_xyz 
  x,y,z 
_cell_length_a                    26.55523857 
_cell_length_b                    26.542521097583155 
_cell_length_c                    34.22478275500016 
_cell_angle_alpha                 89.38972001841707 
_cell_angle_beta                  90.6389794994764 
_cell_angle_gamma                 82.77793124864796 
loop_ 
_atom_site_label 
_atom_site_type_symbol 
_atom_site_fract_x 
_atom_site_fract_y 
_atom_site_fract_z 
_atom_site_charge 
C1          C  0.16567318  0.48780957  0.08258566     0.41500
N2          N  0.08716713  0.48568409  0.06913303     0.00400
C3          C  0.48811006  0.39204706  0.39977469    -0.07200
H4          H  0.09536287  0.03533007  0.37417929     0.05900
C5          C  0.46820157  0.15433273  0.45460896    -0.07800
Co6        Co  0.07297977  0.42735417  0.49633898     0.74200
N7          N  0.07747168  0.49555847  0.42662922    -0.27000
Co8        Co  0.49877874  0.00125282  0.42795433     0.74100
C9          C  0.99392981  0.15868755  0.41754061     0.41600
N10         N  0.47492286  0.09800223  0.04688928     0.00000
N11         N  0.49258689  0.08004020  0.43109034     0.00100
N12         N  0.03384076  0.34495620  0.44656273    -0.47800
H13         H  0.19118208  0.44391542  0.02716143     0.05900
N14         N  0.10585157  0.46877491  0.45331267     0.00400
N15         N  0.42003434  0.00659142  0.43094732     0.00200
C16         C  0.34149758  0.00483615  0.41744685     0.41800
N17         N  0.50171637  0.06978939  0.07365929    -0.26500
C18         C  0.03887734  0.33788831  0.04546294    -0.07400
N19         N  0.11825002  0.00065632  0.09595928    -0.47600
N20         N  0.38890022  0.49177675  0.40409574    -0.47800
C21         C  0.51295093  0.33360426  0.08247114     0.41500
N22         N  0.03229637  0.39421590  0.45313528     0.00400
N23         N  0.42972318  0.99671654  0.07336878    -0.26500
N24         N  0.11152757  0.46210078  0.03981740    -0.27000
N25         N  0.40139542  0.02348936  0.04665278     0.00000
H26         H  0.41171787  0.45722346  0.12591489     0.05900
H27         H  0.31609580  0.04882465  0.47284487     0.06000
N28         N  0.00543754  0.42247416  0.42642064    -0.27000
N29         N  0.46869106  0.10419926  0.46036171    -0.26600
N30         N  0.01461426  0.41222253  0.06894863     0.00400
C31         C  0.15899089  0.49541374  0.41394021     0.41800
C32         C  0.01877783  0.10027188  0.10039784    -0.07900
N33         N  0.39571800  0.03024731  0.46024547    -0.26600
H34         H  0.44964203  0.18388738  0.47289016     0.06000
N35         N  0.15505442  0.46769942  0.44677985    -0.47800
H36         H  0.04058183  0.08806506  0.12643701     0.05900
C37         C  0.34818511  0.99714871  0.08606954     0.41600
C38         C  0.16153399  0.46213791  0.04550739    -0.07400
Co39       Co  0.00841699  0.49100272  0.07209194     0.73800
N40         N  0.47316633  0.14726157  0.05349905    -0.47600
C41         C  0.50644745  0.34088582  0.41359671     0.41900
N42         N  0.49963206  0.38103717  0.09566812    -0.47600
Co43       Co  0.43429437  0.06488175  0.00369688     0.73900
C44         C  0.34569562  0.03045278  0.45452654    -0.07900
C45         C  0.10775491  0.01338528  0.40011424    -0.07400
N46         N  0.03856546  0.38801817  0.03971751    -0.27000
N47         N  0.00732124  0.11128165  0.40430144    -0.47700
H48         H  0.46613935  0.40430397  0.37382333     0.05900
C49         C  0.39938451  0.47906397  0.09991942    -0.07900
Cl50       Cl  0.00361737  0.99610361  0.00001982    -0.50900
C51         C  0.00035419  0.15141128  0.08654402     0.41700
H52         H  0.05733658  0.30828522  0.02717609     0.05900
N53         N  0.35218391  0.02472957  0.05318395    -0.47600
C54         C  0.00409481  0.24474144  0.16543880     0.79300
N55         N  0.00657199  0.28811618  0.14440893    -0.79000
C56         C  0.00811843  0.28705251  0.10476320     0.81700
N57         N  0.00645366  0.24251954  0.08595888    -0.79000
C58         C  0.00377949  0.19912014  0.10673373     0.81800
N59         N  0.00296381  0.20027085  0.14634062    -0.80700
C60         C  0.00086376  0.24799633  0.33459320     0.79300
N61         N  0.00249739  0.29233255  0.35377078    -0.79000
C62         C  0.00265697  0.29324601  0.39339217     0.81700
N63         N  0.00045694  0.24972659  0.41411769    -0.79000
C64         C  0.99832909  0.20531345  0.39524390     0.81800
N65         N  0.99889948  0.20448465  0.35556903    -0.80700
C66         C  0.25536026  0.49367610  0.16538849     0.79300
N67         N  0.29982829  0.49392063  0.14612144    -0.79000
C68         C  0.30059946  0.49394056  0.10648662     0.81700
N69         N  0.25684976  0.49277738  0.08587464    -0.79000
C70         C  0.21235162  0.49190409  0.10481930     0.81800
N71         N  0.21163297  0.49282460  0.14446275    -0.80700
C72         C  0.25193501  0.49870741  0.33464437     0.79300
N73         N  0.29561455  0.49968967  0.35558932    -0.79000
C74         C  0.29481522  0.50086499  0.39521909     0.81700
N75         N  0.25028703  0.50010855  0.41414748    -0.79000
C76         C  0.20657082  0.49880106  0.39352237     0.81800
N77         N  0.20742255  0.49857861  0.35388546    -0.80700
C78         C  0.20897837  0.49268976  0.22885195    -0.14300
C79         C  0.25455171  0.49466579  0.20871032     0.07900
C80         C  0.29930480  0.99790258  0.23039559    -0.14300
C81         C  0.29846212  0.99925615  0.27119793    -0.14300
C82         C  0.25285629  0.49739276  0.29133251     0.07900
C83         C  0.20813573  0.49404401  0.26964759    -0.14300
H84         H  0.17379311  0.49010786  0.21313489     0.11900
H85         H  0.33509228  0.99954285  0.21589127     0.11900
H86         H  0.33364388  0.00184567  0.28692035     0.11900
H87         H  0.17234422  0.49241224  0.28414625     0.11900
C88         C  0.48828363  0.20455045  0.23009266    -0.14300
C89         C  0.00283061  0.24577485  0.20870722     0.07900
C90         C  0.01643888  0.28781178  0.22908744    -0.14300
C91         C  0.01572939  0.28852487  0.26991113    -0.14300
C92         C  0.00136657  0.24722653  0.29130543     0.07900
C93         C  0.48756712  0.20526672  0.27092492    -0.14300
H94         H  0.47720007  0.17173665  0.21528490     0.11900
H95         H  0.02813455  0.32003542  0.21352125     0.11900
H96         H  0.02688319  0.32131501  0.28470859     0.11900
H97         H  0.47593267  0.17302380  0.28650441     0.11900
C98         C  0.16567316  0.48780959  0.58258566     0.41500
N99         N  0.08716720  0.48568397  0.56913301     0.00400
C100        C  0.48811001  0.39204708  0.89977459    -0.07200
H101        H  0.09536292  0.03533035  0.87417919     0.05900
C102        C  0.46820162  0.15433276  0.95460897    -0.07800
Co103      Co  0.07297970  0.42735423  0.99633901     0.74200
N104        N  0.07747167  0.49555849  0.92662920    -0.27000
Co105      Co  0.49877871  0.00125289  0.92795431     0.74100
C106        C  0.99392974  0.15868755  0.91754058     0.41600
N107        N  0.47492285  0.09800221  0.54688929     0.00000
N108        N  0.49258682  0.08004023  0.93109032     0.00100
N109        N  0.03384070  0.34495623  0.94656264    -0.47800
H110        H  0.19118188  0.44391577  0.52716154     0.05900
N111        N  0.10585151  0.46877494  0.95331269     0.00400
N112        N  0.42003436  0.00659152  0.93094734     0.00200
C113        C  0.34149766  0.00483595  0.91744696     0.41800
N114        N  0.50171641  0.06978940  0.57365932    -0.26500
C115        C  0.03887736  0.33788831  0.54546287    -0.07400
N116        N  0.11825003  0.00065635  0.59595932    -0.47600
N117        N  0.38890015  0.49177682  0.90409581    -0.47800
C118        C  0.51295109  0.33360431  0.58247116     0.41500
N119        N  0.03229630  0.39421592  0.95313523     0.00400
N120        N  0.42972322  0.99671663  0.57336887    -0.26500
N121        N  0.11152762  0.46210069  0.53981741    -0.27000
N122        N  0.40139552  0.02348938  0.54665282     0.00000
H123        H  0.41171776  0.45722331  0.62591489     0.05900
H124        H  0.31609572  0.04882436  0.97284510     0.06000
N125        N  0.00543750  0.42247419  0.92642056    -0.27000
N126        N  0.46869107  0.10419931  0.96036176    -0.26600
N127        N  0.01461425  0.41222258  0.56894856     0.00400
C128        C  0.15899090  0.49541386  0.91394031     0.41800
C129        C  0.01877788  0.10027189  0.60039788    -0.07900
N130        N  0.39571800  0.03024736  0.96024555    -0.26600
H131        H  0.44964211  0.18388745  0.97289019     0.06000
N132        N  0.15505439  0.46769950  0.94677995    -0.47800
H133        H  0.04058193  0.08806501  0.62643713     0.05900
C134        C  0.34818509  0.99714854  0.58606942     0.41600
C135        C  0.16153412  0.46213791  0.54550733    -0.07400
Co136      Co  0.00841706  0.49100274  0.57209197     0.73800
N137        N  0.47316622  0.14726154  0.55349910    -0.47600
C138        C  0.50644740  0.34088584  0.91359660     0.41900
N139        N  0.49963206  0.38103723  0.59566804    -0.47600
Co140      Co  0.43429441  0.06488165  0.50369685     0.73900
C141        C  0.34569568  0.03045254  0.95452667    -0.07900
C142        C  0.10775498  0.01338533  0.90011434    -0.07400
N143        N  0.03856540  0.38801821  0.53971742    -0.27000
N144        N  0.00732110  0.11128162  0.90430142    -0.47700
H145        H  0.46613931  0.40430396  0.87382323     0.05900
C146        C  0.39938443  0.47906394  0.59991939    -0.07900
Cl147      Cl  0.00361735  0.99610341  0.50001981    -0.50900
C148        C  0.00035427  0.15141129  0.58654404     0.41700
H149        H  0.05733652  0.30828538  0.52717612     0.05900
N150        N  0.35218395  0.02472952  0.55318389    -0.47600
C151        C  0.00409471  0.24474150  0.66543879     0.79300
N152        N  0.00657193  0.28811623  0.64440894    -0.79000
C153        C  0.00811840  0.28705257  0.60476319     0.81700
N154        N  0.00645362  0.24251960  0.58595889    -0.79000
C155        C  0.00377948  0.19912019  0.60673374     0.81800
N156        N  0.00296375  0.20027090  0.64634063    -0.80700
C157        C  0.00086371  0.24799621  0.83459313     0.79300
N158        N  0.00249734  0.29233251  0.85377069    -0.79000
C159        C  0.00265691  0.29324598  0.89339206     0.81700
N160        N  0.00045688  0.24972660  0.91411762    -0.79000
C161        C  0.99832905  0.20531339  0.89524384     0.81800
N162        N  0.99889944  0.20448460  0.85556899    -0.80700
C163        C  0.25536022  0.49367618  0.66538846     0.79300
N164        N  0.29982826  0.49392061  0.64612139    -0.79000
C165        C  0.30059940  0.49394042  0.60648656     0.81700
N166        N  0.25684968  0.49277736  0.58587462    -0.79000
C167        C  0.21235156  0.49190415  0.60481929     0.81800
N168        N  0.21163291  0.49282466  0.64446274    -0.80700
C169        C  0.25193501  0.49870747  0.83464442     0.79300
N170        N  0.29561452  0.49968974  0.85558936    -0.79000
C171        C  0.29481520  0.50086507  0.89521919     0.81700
N172        N  0.25028701  0.50010862  0.91414755    -0.79000
C173        C  0.20657083  0.49880112  0.89352246     0.81800
N174        N  0.20742252  0.49857867  0.85388552    -0.80700
C175        C  0.20897830  0.49268984  0.72885191    -0.14300
C176        C  0.25455166  0.49466586  0.70871029     0.07900
C177        C  0.29930490  0.99790244  0.73039557    -0.14300
C178        C  0.29846219  0.99925615  0.77119792    -0.14300
C179        C  0.25285625  0.49739282  0.79133251     0.07900
C180        C  0.20813564  0.49404408  0.76964760    -0.14300
H181        H  0.17379319  0.49010794  0.71313492     0.11900
H182        H  0.33509241  0.99954259  0.71589126     0.11900
H183        H  0.33364381  0.00184572  0.78692025     0.11900
H184        H  0.17234433  0.49241231  0.78414618     0.11900
C185        C  0.48828365  0.20455043  0.73009263    -0.14300
C186        C  0.00283052  0.24577483  0.70870720     0.07900
C187        C  0.01643881  0.28781177  0.72908742    -0.14300
C188        C  0.01572935  0.28852470  0.76991107    -0.14300
C189        C  0.00136655  0.24722645  0.79130539     0.07900
C190        C  0.48756709  0.20526659  0.77092490    -0.14300
H191        H  0.47719996  0.17173663  0.71528482     0.11900
H192        H  0.02813443  0.32003538  0.71352126     0.11900
H193        H  0.02688332  0.32131524  0.78470870     0.11900
H194        H  0.47593266  0.17302377  0.78650431     0.11900
C195        C  0.16567317  0.98780954  0.08258568     0.41500
N196        N  0.08716716  0.98568397  0.06913302     0.00400
C197        C  0.48811002  0.89204703  0.39977469    -0.07200
H198        H  0.09536281  0.53533003  0.37417927     0.05900
C199        C  0.46820154  0.65433279  0.45460894    -0.07800
Co200      Co  0.07297975  0.92735417  0.49633898     0.74200
N201        N  0.07747170  0.99555846  0.42662922    -0.27000
Co202      Co  0.49877872  0.50125284  0.42795435     0.74100
C203        C  0.99392978  0.65868755  0.41754059     0.41600
N204        N  0.47492282  0.59800225  0.04688928     0.00000
N205        N  0.49258682  0.58004022  0.43109035     0.00100
N206        N  0.03384071  0.84495616  0.44656273    -0.47800
H207        H  0.19118200  0.94391555  0.02716154     0.05900
N208        N  0.10585157  0.96877488  0.45331265     0.00400
N209        N  0.42003438  0.50659140  0.43094736     0.00200
C210        C  0.34149767  0.50483614  0.41744681     0.41800
N211        N  0.50171633  0.56978945  0.07365927    -0.26500
C212        C  0.03887736  0.83788833  0.04546294    -0.07400
N213        N  0.11825001  0.50065651  0.09595924    -0.47600
N214        N  0.38890012  0.99177675  0.40409574    -0.47800
C215        C  0.51295107  0.83360429  0.08247118     0.41500
N216        N  0.03229633  0.89421586  0.45313528     0.00400
N217        N  0.42972323  0.49671656  0.07336878    -0.26500
N218        N  0.11152761  0.96210073  0.03981738    -0.27000
N219        N  0.40139551  0.52348933  0.04665278     0.00000
H220        H  0.41171784  0.95722341  0.12591488     0.05900
H221        H  0.31609571  0.54882473  0.47284482     0.06000
N222        N  0.00543752  0.92247413  0.42642064    -0.27000
N223        N  0.46869099  0.60419936  0.46036172    -0.26600
N224        N  0.01461421  0.91222255  0.06894861     0.00400
C225        C  0.15899087  0.99541369  0.41394019     0.41800
C226        C  0.01877785  0.60027190  0.10039785    -0.07900
N227        N  0.39571800  0.53024735  0.46024548    -0.26600
H228        H  0.44964198  0.68388756  0.47289013     0.06000
N229        N  0.15505444  0.96769936  0.44677983    -0.47800
H230        H  0.04058177  0.58806504  0.12643704     0.05900
C231        C  0.34818518  0.49714872  0.08606954     0.41600
C232        C  0.16153409  0.96213788  0.04550736    -0.07400
Co233      Co  0.00841698  0.99100269  0.07209193     0.73800
N234        N  0.47316628  0.64726162  0.05349905    -0.47600
C235        C  0.50644740  0.84088579  0.41359671     0.41900
N236        N  0.49963207  0.88103719  0.09566811    -0.47600
Co237      Co  0.43429436  0.56488174  0.00369688     0.73900
C238        C  0.34569565  0.53045275  0.45452650    -0.07900
C239        C  0.10775489  0.51338527  0.40011423    -0.07400
N240        N  0.03856541  0.88801818  0.03971749    -0.27000
N241        N  0.00732119  0.61128164  0.40430145    -0.47700
H242        H  0.46613932  0.90430394  0.37382333     0.05900
C243        C  0.39938445  0.97906394  0.09991940    -0.07900
Cl244      Cl  0.00361739  0.49610363  0.00001982    -0.50900
C245        C  0.00035433  0.65141132  0.08654399     0.41700
H246        H  0.05733659  0.80828524  0.02717607     0.05900
N247        N  0.35218395  0.52472954  0.05318393    -0.47600
C248        C  0.00409474  0.74474145  0.16543880     0.79300
N249        N  0.00657196  0.78811621  0.14440895    -0.79000
C250        C  0.00811842  0.78705254  0.10476322     0.81700
N251        N  0.00645361  0.74251961  0.08595888    -0.79000
C252        C  0.00377948  0.69912018  0.10673372     0.81800
N253        N  0.00296378  0.70027088  0.14634062    -0.80700
C254        C  0.00086372  0.74799629  0.33459320     0.79300
N255        N  0.00249735  0.79233252  0.35377078    -0.79000
C256        C  0.00265692  0.79324597  0.39339217     0.81700
N257        N  0.00045689  0.74972655  0.41411769    -0.79000
C258        C  0.99832905  0.70531342  0.39524389     0.81800
N259        N  0.99889944  0.70448461  0.35556902    -0.80700
C260        C  0.25536023  0.99367606  0.16538849     0.79300
N261        N  0.29982826  0.99392057  0.14612144    -0.79000
C262        C  0.30059941  0.99394060  0.10648662     0.81700
N263        N  0.25684968  0.99277766  0.08587464    -0.79000
C264        C  0.21235157  0.99190429  0.10481929     0.81800
N265        N  0.21163293  0.99282461  0.14446275    -0.80700
C266        C  0.25193501  0.99870736  0.33464437     0.79300
N267        N  0.29561449  0.99968964  0.35558935    -0.79000
C268        C  0.29481514  0.00086503  0.39521913     0.81700
N269        N  0.25028691  0.00010859  0.41414749    -0.79000
C270        C  0.20657077  0.99880103  0.39352234     0.81800
N271        N  0.20742249  0.99857856  0.35388544    -0.80700
C272        C  0.20897834  0.99268972  0.22885196    -0.14300
C273        C  0.25455166  0.99466581  0.20871032     0.07900
C274        C  0.29930487  0.49790240  0.23039560    -0.14300
C275        C  0.29846215  0.49925612  0.27119794    -0.14300
C276        C  0.25285628  0.99739271  0.29133251     0.07900
C277        C  0.20813567  0.99404397  0.26964761    -0.14300
H278        H  0.17379308  0.99010776  0.21313491     0.11900
H279        H  0.33509239  0.49954254  0.21589129     0.11900
H280        H  0.33364385  0.50184569  0.28692034     0.11900
H281        H  0.17234438  0.99241219  0.28414618     0.11900
C282        C  0.48828365  0.70455047  0.23009264    -0.14300
C283        C  0.00283052  0.74577489  0.20870722     0.07900
C284        C  0.01643883  0.78781180  0.22908746    -0.14300
C285        C  0.01572936  0.78852480  0.26991112    -0.14300
C286        C  0.00136654  0.74722652  0.29130543     0.07900
C287        C  0.48756706  0.70526669  0.27092492    -0.14300
H288        H  0.47720005  0.67173677  0.21528489     0.11900
H289        H  0.02813456  0.82003547  0.21352126     0.11900
H290        H  0.02688329  0.82131517  0.28470874     0.11900
H291        H  0.47593260  0.67302395  0.28650428     0.11900
C292        C  0.16567313  0.98780956  0.58258568     0.41500
N293        N  0.08716716  0.98568400  0.56913300     0.00400
C294        C  0.48810997  0.89204712  0.89977459    -0.07200
H295        H  0.09536287  0.53533030  0.87417916     0.05900
C296        C  0.46820157  0.65433274  0.95460897    -0.07800
Co297      Co  0.07297968  0.92735421  0.99633900     0.74200
N298        N  0.07747168  0.99555848  0.92662919    -0.27000
Co299      Co  0.49877868  0.50125287  0.92795431     0.74100
C300        C  0.99392968  0.65868755  0.91754057     0.41600
N301        N  0.47492279  0.59800228  0.54688930     0.00000
N302        N  0.49258677  0.58004021  0.93109031     0.00100
N303        N  0.03384064  0.84495624  0.94656263    -0.47800
H304        H  0.19118178  0.94391571  0.52716158     0.05900
N305        N  0.10585149  0.96877490  0.95331267     0.00400
N306        N  0.42003433  0.50659148  0.93094736     0.00200
C307        C  0.34149762  0.50483610  0.91744692     0.41800
N308        N  0.50171631  0.56978943  0.57365934    -0.26500
C309        C  0.03887752  0.83788826  0.54546290    -0.07400
N310        N  0.11825005  0.50065634  0.59595929    -0.47600
N311        N  0.38890020  0.99177675  0.90409582    -0.47800
C312        C  0.51295106  0.83360429  0.58247116     0.41500
N313        N  0.03229624  0.89421593  0.95313523     0.00400
N314        N  0.42972317  0.49671667  0.57336884    -0.26500
N315        N  0.11152756  0.96210079  0.53981739    -0.27000
N316        N  0.40139546  0.52348943  0.54665281     0.00000
H317        H  0.41171769  0.95722327  0.62591490     0.05900
H318        H  0.31609579  0.54882432  0.97284505     0.06000
N319        N  0.00543747  0.92247421  0.92642056    -0.27000
N320        N  0.46869102  0.60419929  0.96036175    -0.26600
N321        N  0.01461421  0.91222255  0.56894855     0.00400
C322        C  0.15899091  0.99541383  0.91394033     0.41800
C323        C  0.01877783  0.60027191  0.60039788    -0.07900
N324        N  0.39571799  0.53024732  0.96024558    -0.26600
H325        H  0.44964208  0.68388741  0.97289019     0.06000
N326        N  0.15505438  0.96769945  0.94677995    -0.47800
H327        H  0.04058189  0.58806506  0.62643712     0.05900
C328        C  0.34818511  0.49714852  0.58606944     0.41600
C329        C  0.16153407  0.96213793  0.54550732    -0.07400
Co330      Co  0.00841702  0.99100272  0.57209197     0.73800
N331        N  0.47316626  0.64726159  0.55349911    -0.47600
C332        C  0.50644735  0.84088587  0.91359660     0.41900
N333        N  0.49963204  0.88103721  0.59566804    -0.47600
Co334      Co  0.43429435  0.56488176  0.50369686     0.73900
C335        C  0.34569562  0.53045259  0.95452670    -0.07900
C336        C  0.10775495  0.51338532  0.90011432    -0.07400
N337        N  0.03856543  0.88801819  0.53971744    -0.27000
N338        N  0.00732105  0.61128163  0.90430141    -0.47700
H339        H  0.46613927  0.90430403  0.87382322     0.05900
C340        C  0.39938441  0.97906391  0.59991938    -0.07900
Cl341      Cl  0.00361736  0.49610348  0.50001982    -0.50900
C342        C  0.00035424  0.65141131  0.58654404     0.41700
H343        H  0.05733672  0.80828546  0.52717624     0.05900
N344        N  0.35218390  0.52472949  0.55318389    -0.47600
C345        C  0.00409467  0.74474147  0.66543879     0.79300
N346        N  0.00657187  0.78811621  0.64440894    -0.79000
C347        C  0.00811846  0.78705253  0.60476319     0.81700
N348        N  0.00645381  0.74251956  0.58595889    -0.79000
C349        C  0.00377950  0.69912017  0.60673374     0.81800
N350        N  0.00296368  0.70027089  0.64634063    -0.80700
C351        C  0.00086382  0.74799633  0.83459313     0.79300
N352        N  0.00249736  0.79233257  0.85377070    -0.79000
C353        C  0.00265685  0.79324604  0.89339207     0.81700
N354        N  0.00045682  0.74972663  0.91411762    -0.79000
C355        C  0.99832898  0.70531346  0.89524384     0.81800
N356        N  0.99889946  0.70448465  0.85556898    -0.80700
C357        C  0.25536029  0.99367614  0.66538847     0.79300
N358        N  0.29982826  0.99392065  0.64612138    -0.79000
C359        C  0.30059938  0.99394056  0.60648654     0.81700
N360        N  0.25684965  0.99277740  0.58587462    -0.79000
C361        C  0.21235157  0.99190410  0.60481931     0.81800
N362        N  0.21163292  0.99282462  0.64446275    -0.80700
C363        C  0.25193505  0.99870744  0.83464443     0.79300
N364        N  0.29561455  0.99968971  0.85558936    -0.79000
C365        C  0.29481524  0.00086505  0.89521919     0.81700
N366        N  0.25028703  0.00010863  0.91414755    -0.79000
C367        C  0.20657086  0.99880110  0.89352247     0.81800
N368        N  0.20742254  0.99857863  0.85388553    -0.80700
C369        C  0.20897845  0.99268979  0.72885193    -0.14300
C370        C  0.25455174  0.99466581  0.70871029     0.07900
C371        C  0.29930480  0.49790247  0.73039557    -0.14300
C372        C  0.29846208  0.49925619  0.77119790    -0.14300
C373        C  0.25285630  0.99739278  0.79133251     0.07900
C374        C  0.20813571  0.99404404  0.76964759    -0.14300
H375        H  0.17379303  0.99010787  0.71313479     0.11900
H376        H  0.33509231  0.49954261  0.71589125     0.11900
H377        H  0.33364393  0.50184577  0.78692033     0.11900
H378        H  0.17234443  0.99241229  0.78414615     0.11900
C379        C  0.48828360  0.70455046  0.73009266    -0.14300
C380        C  0.00283049  0.74577485  0.70870720     0.07900
C381        C  0.01643876  0.78781180  0.72908739    -0.14300
C382        C  0.01572932  0.78852487  0.76991105    -0.14300
C383        C  0.00136653  0.74722656  0.79130539     0.07900
C384        C  0.48756702  0.70526678  0.77092490    -0.14300
H385        H  0.47719996  0.67173669  0.71528489     0.11900
H386        H  0.02813446  0.82003541  0.71352119     0.11900
H387        H  0.02688327  0.82131520  0.78470857     0.11900
H388        H  0.47593246  0.67302373  0.78650446     0.11900
C389        C  0.66567313  0.48780961  0.08258568     0.41500
N390        N  0.58716714  0.48568408  0.06913303     0.00400
C391        C  0.98811006  0.39204707  0.39977468    -0.07200
H392        H  0.59536282  0.03533008  0.37417930     0.05900
C393        C  0.96820160  0.15433273  0.45460897    -0.07800
Co394      Co  0.57297975  0.42735418  0.49633898     0.74200
N395        N  0.57747165  0.49555847  0.42662922    -0.27000
Co396      Co  0.99877875  0.00125283  0.42795433     0.74100
C397        C  0.49392979  0.15868755  0.41754061     0.41600
N398        N  0.97492274  0.09800224  0.04688931     0.00000
N399        N  0.99258691  0.08004020  0.43109034     0.00100
N400        N  0.53384078  0.34495620  0.44656273    -0.47800
H401        H  0.69118212  0.44391545  0.02716145     0.05900
N402        N  0.60585149  0.46877492  0.45331266     0.00400
N403        N  0.92003431  0.00659144  0.43094734     0.00200
C404        C  0.84149758  0.00483614  0.41744684     0.41800
N405        N  0.00171630  0.06978939  0.07365930    -0.26500
C406        C  0.53887730  0.33788832  0.04546292    -0.07400
N407        N  0.61824993  0.00065631  0.09595928    -0.47600
N408        N  0.88890018  0.49177676  0.40409574    -0.47800
C409        C  0.01295092  0.33360426  0.08247113     0.41500
N410        N  0.53229638  0.39421589  0.45313527     0.00400
N411        N  0.92972320  0.99671654  0.07336877    -0.26500
N412        N  0.61152759  0.46210076  0.03981741    -0.27000
N413        N  0.90139543  0.02348935  0.04665277     0.00000
H414        H  0.91171786  0.45722347  0.12591490     0.05900
H415        H  0.81609589  0.04882450  0.47284473     0.06000
N416        N  0.50543755  0.42247416  0.42642064    -0.27000
N417        N  0.96869108  0.10419926  0.46036172    -0.26600
N418        N  0.51461421  0.41222253  0.06894862     0.00400
C419        C  0.65899083  0.49541373  0.41394021     0.41800
C420        C  0.51877786  0.10027188  0.10039785    -0.07900
N421        N  0.89571797  0.03024732  0.46024547    -0.26600
H422        H  0.94964206  0.18388738  0.47289016     0.06000
N423        N  0.65505438  0.46769942  0.44677984    -0.47800
H424        H  0.54058180  0.08806508  0.12643705     0.05900
C425        C  0.84818513  0.99714871  0.08606954     0.41600
C426        C  0.66153401  0.46213792  0.04550741    -0.07400
Co427      Co  0.50841701  0.49100272  0.07209194     0.73800
N428        N  0.97316628  0.14726158  0.05349905    -0.47600
C429        C  0.00644743  0.34088582  0.41359671     0.41900
N430        N  0.99963206  0.38103718  0.09566810    -0.47600
Co431      Co  0.93429436  0.06488175  0.00369688     0.73900
C432        C  0.84569553  0.03045278  0.45452655    -0.07900
C433        C  0.60775488  0.01338528  0.40011424    -0.07400
N434        N  0.53856535  0.38801819  0.03971748    -0.27000
N435        N  0.50732124  0.11128165  0.40430145    -0.47700
H436        H  0.96613937  0.40430398  0.37382330     0.05900
C437        C  0.89938445  0.47906398  0.09991942    -0.07900
Cl438      Cl  0.50361737  0.99610361  0.00001982    -0.50900
C439        C  0.50035421  0.15141127  0.08654403     0.41700
H440        H  0.55733662  0.30828525  0.02717613     0.05900
N441        N  0.85218392  0.02472957  0.05318395    -0.47600
C442        C  0.50409478  0.24474145  0.16543880     0.79300
N443        N  0.50657200  0.28811618  0.14440893    -0.79000
C444        C  0.50811847  0.28705251  0.10476320     0.81700
N445        N  0.50645369  0.24251953  0.08595888    -0.79000
C446        C  0.50377952  0.19912014  0.10673374     0.81800
N447        N  0.50296382  0.20027085  0.14634063    -0.80700
C448        C  0.50086378  0.24799632  0.33459320     0.79300
N449        N  0.50249742  0.29233255  0.35377078    -0.79000
C450        C  0.50265699  0.29324600  0.39339217     0.81700
N451        N  0.50045695  0.24972659  0.41411769    -0.79000
C452        C  0.49832907  0.20531345  0.39524390     0.81800
N453        N  0.49889946  0.20448465  0.35556903    -0.80700
C454        C  0.75536019  0.49367610  0.16538849     0.79300
N455        N  0.79982818  0.49392063  0.14612142    -0.79000
C456        C  0.80059936  0.49394055  0.10648660     0.81700
N457        N  0.75684963  0.49277747  0.08587464    -0.79000
C458        C  0.71235151  0.49190425  0.10481930     0.81800
N459        N  0.71163285  0.49282467  0.14446276    -0.80700
C460        C  0.75193499  0.49870741  0.33464437     0.79300
N461        N  0.79561451  0.49968967  0.35558935    -0.79000
C462        C  0.79481516  0.50086499  0.39521912     0.81700
N463        N  0.75028695  0.50010856  0.41414749    -0.79000
C464        C  0.70657076  0.49880105  0.39352236     0.81800
N465        N  0.70742250  0.49857861  0.35388544    -0.80700
C466        C  0.70897838  0.49268976  0.22885196    -0.14300
C467        C  0.75455170  0.49466578  0.20871032     0.07900
C468        C  0.79930482  0.99790258  0.23039559    -0.14300
C469        C  0.79846215  0.99925615  0.27119793    -0.14300
C470        C  0.75285631  0.49739276  0.29133251     0.07900
C471        C  0.70813575  0.49404401  0.26964759    -0.14300
H472        H  0.67379311  0.49010786  0.21313491     0.11900
H473        H  0.83509231  0.99954285  0.21589127     0.11900
H474        H  0.83364390  0.00184567  0.28692035     0.11900
H475        H  0.67234425  0.49241224  0.28414625     0.11900
C476        C  0.98828372  0.20455044  0.23009265    -0.14300
C477        C  0.50283046  0.24577488  0.20870722     0.07900
C478        C  0.51643884  0.28781177  0.22908744    -0.14300
C479        C  0.51572942  0.28852485  0.26991113    -0.14300
C480        C  0.50136658  0.24722652  0.29130543     0.07900
C481        C  0.98756714  0.20526672  0.27092492    -0.14300
H482        H  0.97720011  0.17173668  0.21528489     0.11900
H483        H  0.52813458  0.32003535  0.21352125     0.11900
H484        H  0.52688327  0.32131498  0.28470858     0.11900
H485        H  0.97593265  0.17302380  0.28650439     0.11900
C486        C  0.66567314  0.48780959  0.58258565     0.41500
N487        N  0.58716712  0.48568398  0.56913304     0.00400
C488        C  0.98811002  0.39204709  0.89977458    -0.07200
H489        H  0.59536288  0.03533035  0.87417919     0.05900
C490        C  0.96820165  0.15433276  0.95460898    -0.07800
Co491      Co  0.57297969  0.42735423  0.99633900     0.74200
N492        N  0.57747164  0.49555848  0.92662920    -0.27000
Co493      Co  0.99877871  0.00125289  0.92795430     0.74100
C494        C  0.49392972  0.15868755  0.91754058     0.41600
N495        N  0.97492287  0.09800221  0.54688930     0.00000
N496        N  0.99258683  0.08004023  0.93109032     0.00100
N497        N  0.53384073  0.34495624  0.94656263    -0.47800
H498        H  0.69118195  0.44391563  0.52716141     0.05900
N499        N  0.60585150  0.46877494  0.95331269     0.00400
N500        N  0.92003436  0.00659152  0.93094733     0.00200
C501        C  0.84149761  0.00483594  0.91744698     0.41800
N502        N  0.00171640  0.06978939  0.57365933    -0.26500
C503        C  0.53887740  0.33788831  0.54546288    -0.07400
N504        N  0.61825006  0.00065635  0.59595932    -0.47600
N505        N  0.88890018  0.49177682  0.90409581    -0.47800
C506        C  0.01295107  0.33360432  0.58247116     0.41500
N507        N  0.53229631  0.39421593  0.95313522     0.00400
N508        N  0.92972319  0.99671663  0.57336886    -0.26500
N509        N  0.61152756  0.46210071  0.53981742    -0.27000
N510        N  0.90139544  0.02348939  0.54665281     0.00000
H511        H  0.91171780  0.45722331  0.62591489     0.05900
H512        H  0.81609575  0.04882436  0.97284512     0.06000
N513        N  0.50543749  0.42247419  0.92642056    -0.27000
N514        N  0.96869110  0.10419932  0.96036177    -0.26600
N515        N  0.51461420  0.41222258  0.56894855     0.00400
C516        C  0.65899088  0.49541387  0.91394031     0.41800
C517        C  0.51877784  0.10027190  0.60039788    -0.07900
N518        N  0.89571801  0.03024736  0.96024553    -0.26600
H519        H  0.94964214  0.18388746  0.97289019     0.06000
N520        N  0.65505435  0.46769951  0.94677995    -0.47800
H521        H  0.54058191  0.08806505  0.62643710     0.05900
C522        C  0.84818508  0.99714853  0.58606943     0.41600
C523        C  0.66153400  0.46213792  0.54550735    -0.07400
Co524      Co  0.50841697  0.49100274  0.57209197     0.73800
N525        N  0.97316631  0.14726154  0.55349909    -0.47600
C526        C  0.00644738  0.34088585  0.91359660     0.41900
N527        N  0.99963209  0.38103724  0.59566804    -0.47600
Co528      Co  0.93429439  0.06488166  0.50369685     0.73900
C529        C  0.84569568  0.03045254  0.95452668    -0.07900
C530        C  0.60775494  0.01338533  0.90011433    -0.07400
N531        N  0.53856540  0.38801821  0.53971743    -0.27000
N532        N  0.50732110  0.11128162  0.90430142    -0.47700
H533        H  0.96613934  0.40430397  0.87382320     0.05900
C534        C  0.89938448  0.47906394  0.59991939    -0.07900
Cl535      Cl  0.50361737  0.99610341  0.50001981    -0.50900
C536        C  0.50035411  0.15141130  0.58654408     0.41700
H537        H  0.55733656  0.30828539  0.52717612     0.05900
N538        N  0.85218392  0.02472952  0.55318389    -0.47600
C539        C  0.50409475  0.24474150  0.66543879     0.79300
N540        N  0.50657196  0.28811623  0.64440894    -0.79000
C541        C  0.50811843  0.28705256  0.60476319     0.81700
N542        N  0.50645363  0.24251959  0.58595889    -0.79000
C543        C  0.50377946  0.19912019  0.60673375     0.81800
N544        N  0.50296377  0.20027091  0.64634063    -0.80700
C545        C  0.50086373  0.24799621  0.83459313     0.79300
N546        N  0.50249737  0.29233251  0.85377069    -0.79000
C547        C  0.50265693  0.29324597  0.89339206     0.81700
N548        N  0.50045690  0.24972659  0.91411762    -0.79000
C549        C  0.49832903  0.20531339  0.89524384     0.81800
N550        N  0.49889942  0.20448460  0.85556899    -0.80700
C551        C  0.75536024  0.49367618  0.66538846     0.79300
N552        N  0.79982828  0.49392061  0.64612139    -0.79000
C553        C  0.80059943  0.49394042  0.60648656     0.81700
N554        N  0.75684970  0.49277736  0.58587461    -0.79000
C555        C  0.71235157  0.49190414  0.60481929     0.81800
N556        N  0.71163293  0.49282466  0.64446273    -0.80700
C557        C  0.75193504  0.49870747  0.83464442     0.79300
N558        N  0.79561455  0.49968974  0.85558936    -0.79000
C559        C  0.79481522  0.50086507  0.89521919     0.81700
N560        N  0.75028703  0.50010862  0.91414755    -0.79000
C561        C  0.70657084  0.49880112  0.89352246     0.81800
N562        N  0.70742254  0.49857867  0.85388553    -0.80700
C563        C  0.70897832  0.49268984  0.72885192    -0.14300
C564        C  0.75455169  0.49466586  0.70871029     0.07900
C565        C  0.79930493  0.99790244  0.73039557    -0.14300
C566        C  0.79846222  0.99925615  0.77119793    -0.14300
C567        C  0.75285627  0.49739282  0.79133251     0.07900
C568        C  0.70813571  0.49404408  0.76964758    -0.14300
H569        H  0.67379322  0.49010794  0.71313491     0.11900
H570        H  0.83509244  0.99954259  0.71589126     0.11900
H571        H  0.83364384  0.00184572  0.78692027     0.11900
H572        H  0.67234417  0.49241231  0.78414627     0.11900
C573        C  0.98828366  0.20455042  0.73009263    -0.14300
C574        C  0.50283054  0.24577483  0.70870720     0.07900
C575        C  0.51643884  0.28781176  0.72908742    -0.14300
C576        C  0.51572938  0.28852469  0.76991107    -0.14300
C577        C  0.50136656  0.24722644  0.79130539     0.07900
C578        C  0.98756711  0.20526658  0.77092490    -0.14300
H579        H  0.97720000  0.17173661  0.71528482     0.11900
H580        H  0.52813446  0.32003537  0.71352126     0.11900
H581        H  0.52688335  0.32131523  0.78470870     0.11900
H582        H  0.97593270  0.17302375  0.78650431     0.11900
C583        C  0.66567311  0.98780954  0.08258569     0.41500
N584        N  0.58716710  0.98568398  0.06913304     0.00400
C585        C  0.98811002  0.89204704  0.39977469    -0.07200
H586        H  0.59536283  0.53533004  0.37417928     0.05900
C587        C  0.96820156  0.65433279  0.45460894    -0.07800
Co588      Co  0.57297976  0.92735416  0.49633898     0.74200
N589        N  0.57747168  0.99555845  0.42662922    -0.27000
Co590      Co  0.99877874  0.50125284  0.42795435     0.74100
C591        C  0.49392976  0.65868755  0.41754059     0.41600
N592        N  0.97492283  0.59800226  0.04688929     0.00000
N593        N  0.99258684  0.58004022  0.43109035     0.00100
N594        N  0.53384074  0.84495616  0.44656273    -0.47800
H595        H  0.69118210  0.94391543  0.02716144     0.05900
N596        N  0.60585156  0.96877487  0.45331265     0.00400
N597        N  0.92003437  0.50659142  0.43094735     0.00200
C598        C  0.84149764  0.50483612  0.41744683     0.41800
N599        N  0.00171632  0.56978944  0.07365928    -0.26500
C600        C  0.53887739  0.83788833  0.04546295    -0.07400
N601        N  0.61824998  0.50065653  0.09595924    -0.47600
N602        N  0.88890012  0.99177676  0.40409575    -0.47800
C603        C  0.01295105  0.83360430  0.08247119     0.41500
N604        N  0.53229635  0.89421586  0.45313528     0.00400
N605        N  0.92972319  0.49671655  0.07336878    -0.26500
N606        N  0.61152755  0.96210073  0.03981738    -0.27000
N607        N  0.90139542  0.52348934  0.04665277     0.00000
H608        H  0.91171787  0.95722341  0.12591488     0.05900
H609        H  0.81609582  0.54882461  0.47284482     0.06000
N610        N  0.50543752  0.92247413  0.42642064    -0.27000
N611        N  0.96869102  0.60419935  0.46036172    -0.26600
N612        N  0.51461421  0.91222255  0.06894861     0.00400
C613        C  0.65899086  0.99541370  0.41394019     0.41800
C614        C  0.51877781  0.60027191  0.10039785    -0.07900
N615        N  0.89571801  0.53024735  0.46024547    -0.26600
H616        H  0.94964201  0.68388756  0.47289013     0.06000
N617        N  0.65505440  0.96769937  0.44677983    -0.47800
H618        H  0.54058175  0.58806509  0.12643702     0.05900
C619        C  0.84818509  0.49714871  0.08606955     0.41600
C620        C  0.66153396  0.96213791  0.04550740    -0.07400
Co621      Co  0.50841697  0.99100269  0.07209193     0.73800
N622        N  0.97316637  0.64726162  0.05349904    -0.47600
C623        C  0.00644738  0.84088579  0.41359671     0.41900
N624        N  0.99963208  0.88103719  0.09566811    -0.47600
Co625      Co  0.93429436  0.56488174  0.00369689     0.73900
C626        C  0.84569564  0.53045274  0.45452653    -0.07900
C627        C  0.60775485  0.51338528  0.40011422    -0.07400
N628        N  0.53856543  0.88801818  0.03971749    -0.27000
N629        N  0.50732119  0.61128164  0.40430146    -0.47700
H630        H  0.96613934  0.90430395  0.37382330     0.05900
C631        C  0.89938447  0.97906394  0.09991940    -0.07900
Cl632      Cl  0.50361741  0.49610364  0.00001982    -0.50900
C633        C  0.50035416  0.65141132  0.08654403     0.41700
H634        H  0.55733662  0.80828525  0.02717607     0.05900
N635        N  0.85218390  0.52472954  0.05318394    -0.47600
C636        C  0.50409477  0.74474145  0.16543880     0.79300
N637        N  0.50657199  0.78811621  0.14440894    -0.79000
C638        C  0.50811845  0.78705253  0.10476321     0.81700
N639        N  0.50645362  0.74251960  0.08595888    -0.79000
C640        C  0.50377946  0.69912018  0.10673373     0.81800
N641        N  0.50296380  0.70027089  0.14634062    -0.80700
C642        C  0.50086373  0.74799628  0.33459320     0.79300
N643        N  0.50249738  0.79233251  0.35377078    -0.79000
C644        C  0.50265695  0.79324597  0.39339217     0.81700
N645        N  0.50045691  0.74972655  0.41411769    -0.79000
C646        C  0.49832904  0.70531342  0.39524389     0.81800
N647        N  0.49889942  0.70448462  0.35556902    -0.80700
C648        C  0.75536025  0.99367606  0.16538849     0.79300
N649        N  0.79982828  0.99392057  0.14612144    -0.79000
C650        C  0.80059942  0.99394060  0.10648662     0.81700
N651        N  0.75684967  0.99277766  0.08587464    -0.79000
C652        C  0.71235154  0.99190430  0.10481930     0.81800
N653        N  0.71163294  0.99282461  0.14446275    -0.80700
C654        C  0.75193503  0.99870736  0.33464437     0.79300
N655        N  0.79561451  0.99968964  0.35558935    -0.79000
C656        C  0.79481515  0.00086502  0.39521912     0.81700
N657        N  0.75028692  0.00010858  0.41414748    -0.79000
C658        C  0.70657077  0.99880103  0.39352234     0.81800
N659        N  0.70742251  0.99857856  0.35388543    -0.80700
C660        C  0.70897836  0.99268972  0.22885196    -0.14300
C661        C  0.75455169  0.99466581  0.20871032     0.07900
C662        C  0.79930493  0.49790240  0.23039557    -0.14300
C663        C  0.79846217  0.49925612  0.27119794    -0.14300
C664        C  0.75285630  0.99739271  0.29133251     0.07900
C665        C  0.70813574  0.99404397  0.26964759    -0.14300
H666        H  0.67379311  0.99010777  0.21313491     0.11900
H667        H  0.83509220  0.49954253  0.21589136     0.11900
H668        H  0.83364389  0.50184569  0.28692034     0.11900
H669        H  0.67234422  0.99241219  0.28414627     0.11900
C670        C  0.98828366  0.70455046  0.23009264    -0.14300
C671        C  0.50283054  0.74577489  0.20870722     0.07900
C672        C  0.51643885  0.78781180  0.22908746    -0.14300
C673        C  0.51572939  0.78852479  0.26991112    -0.14300
C674        C  0.50136655  0.74722652  0.29130543     0.07900
C675        C  0.98756707  0.70526668  0.27092492    -0.14300
H676        H  0.97720008  0.67173674  0.21528489     0.11900
H677        H  0.52813459  0.82003546  0.21352126     0.11900
H678        H  0.52688333  0.82131516  0.28470874     0.11900
H679        H  0.97593264  0.67302392  0.28650428     0.11900
C680        C  0.66567316  0.98780956  0.58258568     0.41500
N681        N  0.58716718  0.98568401  0.56913300     0.00400
C682        C  0.98810997  0.89204712  0.89977458    -0.07200
H683        H  0.59536282  0.53533031  0.87417917     0.05900
C684        C  0.96820160  0.65433274  0.95460898    -0.07800
Co685      Co  0.57297968  0.92735421  0.99633900     0.74200
N686        N  0.57747166  0.99555848  0.92662920    -0.27000
Co687      Co  0.99877871  0.50125287  0.92795431     0.74100
C688        C  0.49392967  0.65868755  0.91754057     0.41600
N689        N  0.97492282  0.59800227  0.54688930     0.00000
N690        N  0.99258679  0.58004021  0.93109031     0.00100
N691        N  0.53384067  0.84495624  0.94656263    -0.47800
H692        H  0.69118181  0.94391571  0.52716158     0.05900
N693        N  0.60585150  0.96877490  0.95331268     0.00400
N694        N  0.92003435  0.50659149  0.93094736     0.00200
C695        C  0.84149764  0.50483610  0.91744692     0.41800
N696        N  0.00171637  0.56978943  0.57365933    -0.26500
C697        C  0.53887735  0.83788828  0.54546287    -0.07400
N698        N  0.61825000  0.50065635  0.59595930    -0.47600
N699        N  0.88890015  0.99177676  0.90409582    -0.47800
C700        C  0.01295112  0.83360428  0.58247116     0.41500
N701        N  0.53229627  0.89421593  0.95313522     0.00400
N702        N  0.92972324  0.49671668  0.57336885    -0.26500
N703        N  0.61152759  0.96210079  0.53981739    -0.27000
N704        N  0.90139551  0.52348943  0.54665282     0.00000
H705        H  0.91171774  0.95722328  0.62591490     0.05900
H706        H  0.81609582  0.54882432  0.97284505     0.06000
N707        N  0.50543747  0.92247420  0.92642056    -0.27000
N708        N  0.96869105  0.60419929  0.96036176    -0.26600
N709        N  0.51461423  0.91222255  0.56894857     0.00400
C710        C  0.65899086  0.99541382  0.91394030     0.41800
C711        C  0.51877784  0.60027190  0.60039786    -0.07900
N712        N  0.89571801  0.53024732  0.96024557    -0.26600
H713        H  0.94964210  0.68388741  0.97289019     0.06000
N714        N  0.65505437  0.96769946  0.94677994    -0.47800
H715        H  0.54058189  0.58806504  0.62643711     0.05900
C716        C  0.84818515  0.49714851  0.58606944     0.41600
C717        C  0.66153409  0.96213793  0.54550732    -0.07400
Co718      Co  0.50841705  0.99100272  0.57209198     0.73800
N719        N  0.97316627  0.64726159  0.55349910    -0.47600
C720        C  0.00644732  0.84088587  0.91359660     0.41900
N721        N  0.99963204  0.88103719  0.59566802    -0.47600
Co722      Co  0.93429437  0.56488176  0.50369686     0.73900
C723        C  0.84569564  0.53045259  0.95452670    -0.07900
C724        C  0.60775493  0.51338532  0.90011432    -0.07400
N725        N  0.53856539  0.88801818  0.53971743    -0.27000
N726        N  0.50732106  0.61128162  0.90430142    -0.47700
H727        H  0.96613929  0.90430404  0.87382320     0.05900
C728        C  0.89938440  0.97906392  0.59991938    -0.07900
Cl729      Cl  0.50361735  0.49610348  0.50001981    -0.50900
C730        C  0.50035426  0.65141131  0.58654403     0.41700
H731        H  0.55733651  0.80828535  0.52717612     0.05900
N732        N  0.85218395  0.52472949  0.55318389    -0.47600
C733        C  0.50409470  0.74474147  0.66543880     0.79300
N734        N  0.50657189  0.78811621  0.64440895    -0.79000
C735        C  0.50811847  0.78705254  0.60476320     0.81700
N736        N  0.50645384  0.74251956  0.58595890    -0.79000
C737        C  0.50377953  0.69912017  0.60673374     0.81800
N738        N  0.50296371  0.70027089  0.64634063    -0.80700
C739        C  0.50086367  0.74799634  0.83459313     0.79300
N740        N  0.50249731  0.79233257  0.85377069    -0.79000
C741        C  0.50265688  0.79324604  0.89339207     0.81700
N742        N  0.50045684  0.74972662  0.91411762    -0.79000
C743        C  0.49832897  0.70531345  0.89524384     0.81800
N744        N  0.49889936  0.70448466  0.85556898    -0.80700
C745        C  0.75536031  0.99367614  0.66538847     0.79300
N746        N  0.79982828  0.99392065  0.64612138    -0.79000
C747        C  0.80059940  0.99394055  0.60648655     0.81700
N748        N  0.75684967  0.99277740  0.58587462    -0.79000
C749        C  0.71235159  0.99190410  0.60481931     0.81800
N750        N  0.71163295  0.99282462  0.64446275    -0.80700
C751        C  0.75193500  0.99870744  0.83464443     0.79300
N752        N  0.79561448  0.99968971  0.85558940    -0.79000
C753        C  0.79481514  0.00086505  0.89521922     0.81700
N754        N  0.75028692  0.00010864  0.91414755    -0.79000
C755        C  0.70657076  0.99880110  0.89352244     0.81800
N756        N  0.70742248  0.99857863  0.85388550    -0.80700
C757        C  0.70897847  0.99268979  0.72885193    -0.14300
C758        C  0.75455176  0.99466581  0.70871029     0.07900
C759        C  0.79930483  0.49790247  0.73039557    -0.14300
C760        C  0.79846211  0.49925619  0.77119790    -0.14300
C761        C  0.75285632  0.99739278  0.79133251     0.07900
C762        C  0.70813574  0.99404404  0.76964759    -0.14300
H763        H  0.67379306  0.99010787  0.71313479     0.11900
H764        H  0.83509233  0.49954261  0.71589126     0.11900
H765        H  0.83364395  0.50184576  0.78692033     0.11900
H766        H  0.67234446  0.99241228  0.78414614     0.11900
C767        C  0.98828361  0.70455045  0.73009266    -0.14300
C768        C  0.50283051  0.74577485  0.70870721     0.07900
C769        C  0.51643880  0.78781182  0.72908739    -0.14300
C770        C  0.51572933  0.78852485  0.76991106    -0.14300
C771        C  0.50136649  0.74722656  0.79130540     0.07900
C772        C  0.98756704  0.70526678  0.77092490    -0.14300
H773        H  0.97719999  0.67173666  0.71528490     0.11900
H774        H  0.52813446  0.82003529  0.71352123     0.11900
H775        H  0.52688328  0.82131519  0.78470859     0.11900
H776        H  0.97593252  0.67302371  0.78650448     0.11900
loop_ 
_geom_bond_atom_site_label_1 
_geom_bond_atom_site_label_2 
_geom_bond_distance 
_geom_bond_site_symmetry_2 
_ccdc_geom_bond_type 
C1           C38   1.456       .  S
C1           C70   1.464       .  S
C1          N213   1.349       .  A
N2           N24   1.320       .  A
N2          N213   1.325       .  A
N2          Co39   2.082       .  S
C3           C41   1.456       .  S
C3          N416   1.340       .  A
C3           H48   1.082       .  S
H4           C45   1.082       .  S
C5          C397   1.458       .  S
C5           N29   1.342       .  A
C5           H34   1.082       .  S
Co6          N14   2.092       .  S
Co6          N22   2.088       .  S
Co6         N121   2.085       .  S
Co6         N143   2.090       .  S
Co6        Cl341   2.430       .  S
N7          C239   1.340       .  A
N7           N14   1.320       .  A
N7         Co590   2.077   1_455  S
Co8          N11   2.081       .  S
Co8          N15   2.082       .  S
Co8         N589   2.077   1_545  S
Co8         N610   2.077   1_545  S
Co8        Cl535   2.470   1_545  S
C9           C64   1.465       .  S
C9          C393   1.458       .  S
C9           N47   1.348   1_655  A
N10          N17   1.320       .  A
N10          N40   1.324       .  A
N10         Co43   2.086       .  S
N11          N29   1.320       .  A
N11         N435   1.325       .  A
N12         C429   1.348       .  A
N12          N22   1.325       .  A
H13          C38   1.082       .  S
N14          N35   1.325       .  A
N15          N33   1.320       .  A
N15         N214   1.325   1_545  A
C16          C44   1.456       .  S
C16         C268   1.463       .  S
C16         N214   1.349   1_545  A
N17         C420   1.340       .  A
N17        Co621   2.078   1_545  S
C18         C409   1.459       .  S
C18          N46   1.342       .  A
C18          H52   1.082       .  S
N19         C195   1.349   1_545  A
N19         N196   1.325   1_545  A
N20         C210   1.349       .  A
N20         N209   1.325       .  A
C21         C406   1.459       .  S
C21         C444   1.465       .  S
C21          N42   1.348       .  A
N22          N28   1.320       .  A
N23         C243   1.340       .  A
N23          N25   1.320   1_565  A
N23        Co621   2.077       .  S
N24          C38   1.340       .  A
N24        Co103   2.085   1_554  S
N25          N53   1.325       .  A
N25         Co43   2.090       .  S
H26          C49   1.082       .  S
H27          C44   1.082       .  S
N28         C391   1.340   1_455  A
N28        Co590   2.077   1_455  S
N29        Co140   2.088       .  S
N30          N46   1.320       .  A
N30         N430   1.325   1_455  A
N30         Co39   2.081       .  S
C31          C76   1.463       .  S
C31         C239   1.456       .  S
C31          N35   1.349       .  A
C32          C51   1.456       .  S
C32         N405   1.340       .  A
C32          H36   1.081       .  S
N33          C44   1.340       .  A
N33        Co140   2.083       .  S
C37         C243   1.456       .  S
C37         C262   1.462       .  S
C37          N53   1.349   1_565  A
Co39        N599   2.078       .  S
Co39        N605   2.077   1_455  S
Co39       Cl244   2.470       .  S
N40         C439   1.348       .  A
C41         C450   1.462       .  S
C41         N400   1.348       .  A
N42         N418   1.325       .  A
Co43        N126   2.088   1_554  S
Co43        N130   2.083   1_554  S
Co43       Cl438   2.429   1_545  S
C45         C225   1.456   1_545  S
C45         N201   1.340   1_545  A
N46        Co103   2.090   1_554  S
N47         N399   1.325   1_455  A
C49         C231   1.456       .  S
C49         N217   1.340       .  A
Cl50       Co297   2.430   1_554  S
Cl50       Co493   2.470   1_464  S
Cl50       Co233   2.470       .  S
Cl50       Co431   2.429   1_465  S
C51          C58   1.461       .  S
C51         N428   1.348   1_455  A
C54          C89   1.482       .  S
C54          N55   1.360       .  A
C54          N59   1.359       .  A
N55          C56   1.358       .  A
C56         C409   1.465       .  S
C56          N57   1.357       .  A
N57          C58   1.357       .  A
C58          N59   1.357       .  A
C60          C92   1.482       .  S
C60          N61   1.359       .  A
C60          N65   1.360   1_455  A
N61          C62   1.356       .  A
C62         C429   1.462       .  S
C62          N63   1.357       .  A
N63          C64   1.357   1_455  A
C64          N65   1.358       .  A
C66          C79   1.484       .  S
C66          N67   1.360       .  A
C66          N71   1.360       .  A
N67          C68   1.357       .  A
C68         C231   1.462       .  S
C68          N69   1.356       .  A
N69          C70   1.357       .  A
C70          N71   1.358       .  A
C72          C82   1.484       .  S
C72          N73   1.360       .  A
C72          N77   1.360       .  A
N73          C74   1.357       .  A
C74         C210   1.463       .  S
C74          N75   1.357       .  A
N75          C76   1.356       .  A
C76          N77   1.357       .  A
C78          H84   1.083       .  S
C78          C79   1.406       .  A
C78          C83   1.397       .  A
C79         C274   1.406       .  A
C80          H85   1.083       .  S
C80          C81   1.398       .  A
C80         C273   1.406       .  A
C81          H86   1.083   1_565  S
C81         C276   1.406       .  A
C82          C83   1.406       .  A
C82         C275   1.406       .  A
C83          H87   1.083       .  S
C88          H94   1.083       .  S
C88          C93   1.398       .  A
C88         C477   1.406       .  A
C89          C90   1.405       .  A
C89         C476   1.406   1_455  A
C90          H95   1.083       .  S
C90          C91   1.398       .  A
C91          H96   1.083       .  S
C91          C92   1.406       .  A
C92         C481   1.405   1_455  A
C93          H97   1.083       .  S
C93         C480   1.405       .  A
C98         C135   1.456       .  S
C98         C167   1.464       .  S
C98         N310   1.349       .  A
N99         N310   1.325       .  A
N99         N121   1.320       .  A
N99        Co136   2.082       .  S
C100        C138   1.456       .  S
C100        N513   1.340       .  A
C100        H145   1.082       .  S
H101        C142   1.082       .  S
C102        C494   1.458       .  S
C102        N126   1.342       .  A
C102        H131   1.082       .  S
Co103       N111   2.092       .  S
Co103       N119   2.088       .  S
Co103      Cl244   2.430   1_556  S
N104        C336   1.340       .  A
N104        N111   1.320       .  A
N104       Co687   2.077   1_455  S
Co105       N686   2.077   1_545  S
Co105       N108   2.081       .  S
Co105       N707   2.077   1_545  S
Co105       N112   2.082       .  S
Co105      Cl438   2.470   1_546  S
C106        C490   1.458       .  S
C106        C161   1.465       .  S
C106        N144   1.348   1_655  A
N107        N114   1.320       .  A
N107        N137   1.324       .  A
N107       Co140   2.086       .  S
N108        N126   1.320       .  A
N108        N532   1.325       .  A
N109        C526   1.348       .  A
N109        N119   1.325       .  A
H110        C135   1.082       .  S
N111        N132   1.325       .  A
N112        N130   1.320       .  A
N112        N311   1.325   1_545  A
C113        C141   1.456       .  S
C113        C365   1.463       .  S
C113        N311   1.349   1_545  A
N114        C517   1.340       .  A
N114       Co718   2.078   1_545  S
C115        C506   1.459       .  S
C115        N143   1.342       .  A
C115        H149   1.082       .  S
N116        C292   1.349   1_545  A
N116        N293   1.325   1_545  A
N117        C307   1.349       .  A
N117        N306   1.325       .  A
C118        C503   1.459       .  S
C118        C541   1.465       .  S
C118        N139   1.348       .  A
N119        N125   1.320       .  A
N120        C340   1.340       .  A
N120        N122   1.320   1_565  A
N120       Co718   2.077       .  S
N121        C135   1.340       .  A
N122        N150   1.325       .  A
N122       Co140   2.090       .  S
H123        C146   1.082       .  S
H124        C141   1.082       .  S
N125        C488   1.340   1_455  A
N125       Co687   2.077   1_455  S
N127        N527   1.325   1_455  A
N127        N143   1.320       .  A
N127       Co136   2.081       .  S
C128        C336   1.456       .  S
C128        C173   1.463       .  S
C128        N132   1.349       .  A
C129        C148   1.456       .  S
C129        N502   1.340       .  A
C129        H133   1.081       .  S
N130        C141   1.340       .  A
C134        C340   1.456       .  S
C134        C359   1.462       .  S
C134        N150   1.349   1_565  A
Co136       N696   2.078       .  S
Co136       N702   2.077   1_455  S
Co136      Cl341   2.470       .  S
N137        C536   1.348       .  A
C138        C547   1.462       .  S
C138        N497   1.348       .  A
N139        N515   1.325       .  A
Co140      Cl535   2.429   1_545  S
C142        C322   1.456   1_545  S
C142        N298   1.340   1_545  A
N144        N496   1.325   1_455  A
C146        C328   1.456       .  S
C146        N314   1.340       .  A
Cl147      Co200   2.430       .  S
Cl147      Co396   2.470   1_465  S
Cl147      Co330   2.470       .  S
Cl147      Co528   2.429   1_465  S
C148        C155   1.461       .  S
C148        N525   1.348   1_455  A
C151        C186   1.482       .  S
C151        N152   1.360       .  A
C151        N156   1.359       .  A
N152        C153   1.358       .  A
C153        C506   1.465       .  S
C153        N154   1.357       .  A
N154        C155   1.357       .  A
C155        N156   1.357       .  A
C157        C189   1.482       .  S
C157        N158   1.359       .  A
C157        N162   1.360   1_455  A
N158        C159   1.356       .  A
C159        C526   1.462       .  S
C159        N160   1.357       .  A
N160        C161   1.357   1_455  A
C161        N162   1.358       .  A
C163        C176   1.484       .  S
C163        N164   1.360       .  A
C163        N168   1.360       .  A
N164        C165   1.357       .  A
C165        C328   1.462       .  S
C165        N166   1.356       .  A
N166        C167   1.357       .  A
C167        N168   1.358       .  A
C169        C179   1.484       .  S
C169        N170   1.360       .  A
C169        N174   1.360       .  A
N170        C171   1.357       .  A
C171        C307   1.463       .  S
C171        N172   1.357       .  A
N172        C173   1.356       .  A
C173        N174   1.357       .  A
C175        H181   1.083       .  S
C175        C176   1.406       .  A
C175        C180   1.397       .  A
C176        C371   1.406       .  A
C177        H182   1.083       .  S
C177        C370   1.406       .  A
C177        C178   1.398       .  A
C178        H183   1.083   1_565  S
C178        C373   1.406       .  A
C179        C372   1.406       .  A
C179        C180   1.406       .  A
C180        H184   1.083       .  S
C185        H191   1.083       .  S
C185        C574   1.406       .  A
C185        C190   1.398       .  A
C186        C573   1.406   1_455  A
C186        C187   1.405       .  A
C187        H192   1.083       .  S
C187        C188   1.398       .  A
C188        H193   1.083       .  S
C188        C189   1.406       .  A
C189        C578   1.405   1_455  A
C190        H194   1.083       .  S
C190        C577   1.405       .  A
C195        C232   1.456       .  S
C195        C264   1.464       .  S
N196        N218   1.320       .  A
N196       Co233   2.082       .  S
C197        C235   1.456       .  S
C197        N610   1.340       .  A
C197        H242   1.082       .  S
H198        C239   1.082       .  S
C199        C591   1.458       .  S
C199        N223   1.342       .  A
C199        H228   1.082       .  S
Co200       N315   2.085       .  S
Co200       N208   2.092       .  S
Co200       N337   2.090       .  S
Co200       N216   2.088       .  S
N201        N208   1.320       .  A
N201       Co396   2.077   1_465  S
Co202       N395   2.077       .  S
Co202       N205   2.081       .  S
Co202       N416   2.077       .  S
Co202       N209   2.082       .  S
Co202      Cl729   2.470       .  S
C203        C587   1.458       .  S
C203        C258   1.465       .  S
C203        N241   1.348   1_655  A
N204        N211   1.320       .  A
N204        N234   1.324       .  A
N204       Co237   2.086       .  S
N205        N223   1.320       .  A
N205        N629   1.325       .  A
N206        C623   1.348       .  A
N206        N216   1.325       .  A
H207        C232   1.082       .  S
N208        N229   1.325       .  A
N209        N227   1.320       .  A
C210        C238   1.456       .  S
N211        C614   1.340       .  A
N211       Co427   2.078       .  S
C212        C603   1.459       .  S
C212        N240   1.342       .  A
C212        H246   1.082       .  S
C215        C600   1.459       .  S
C215        C638   1.465       .  S
C215        N236   1.348       .  A
N216        N222   1.320       .  A
N217        N219   1.320       .  A
N217       Co427   2.077       .  S
N218        C232   1.340       .  A
N218       Co297   2.085   1_554  S
N219        N247   1.325       .  A
N219       Co237   2.090       .  S
H220        C243   1.082       .  S
H221        C238   1.082       .  S
N222        C585   1.340   1_455  A
N222       Co396   2.077   1_465  S
N223       Co334   2.088       .  S
N224        N624   1.325   1_455  A
N224        N240   1.320       .  A
N224       Co233   2.081       .  S
C225        C270   1.463       .  S
C225        N229   1.349       .  A
C226        C245   1.456       .  S
C226        N599   1.340       .  A
C226        H230   1.081       .  S
N227        C238   1.340       .  A
N227       Co334   2.083       .  S
C231        N247   1.349       .  A
Co233       N405   2.078   1_565  S
Co233       N411   2.077   1_455  S
N234        C633   1.348       .  A
C235        C644   1.462       .  S
C235        N594   1.348       .  A
N236        N612   1.325       .  A
Co237       N320   2.088   1_554  S
Co237       N324   2.083   1_554  S
Co237      Cl632   2.429       .  S
N240       Co297   2.090   1_554  S
N241        N593   1.325   1_455  A
Cl244      Co687   2.470   1_454  S
Cl244      Co625   2.429   1_455  S
C245        C252   1.461       .  S
C245        N622   1.348   1_455  A
C248        C283   1.482       .  S
C248        N249   1.360       .  A
C248        N253   1.359       .  A
N249        C250   1.358       .  A
C250        C603   1.465       .  S
C250        N251   1.357       .  A
N251        C252   1.357       .  A
C252        N253   1.357       .  A
C254        C286   1.482       .  S
C254        N255   1.359       .  A
C254        N259   1.360   1_455  A
N255        C256   1.356       .  A
C256        C623   1.462       .  S
C256        N257   1.357       .  A
N257        C258   1.357   1_455  A
C258        N259   1.358       .  A
C260        C273   1.484       .  S
C260        N261   1.360       .  A
C260        N265   1.360       .  A
N261        C262   1.357       .  A
C262        N263   1.356       .  A
N263        C264   1.357       .  A
C264        N265   1.358       .  A
C266        C276   1.484       .  S
C266        N267   1.360       .  A
C266        N271   1.360       .  A
N267        C268   1.357   1_565  A
C268        N269   1.357       .  A
N269        C270   1.356   1_545  A
C270        N271   1.357       .  A
C272        H278   1.083       .  S
C272        C273   1.406       .  A
C272        C277   1.397       .  A
C274        H279   1.083       .  S
C274        C275   1.398       .  A
C275        H280   1.083       .  S
C276        C277   1.406       .  A
C277        H281   1.083       .  S
C282        H288   1.083       .  S
C282        C671   1.406       .  A
C282        C287   1.398       .  A
C283        C670   1.406   1_455  A
C283        C284   1.405       .  A
C284        H289   1.083       .  S
C284        C285   1.398       .  A
C285        H290   1.083       .  S
C285        C286   1.406       .  A
C286        C675   1.405   1_455  A
C287        H291   1.083       .  S
C287        C674   1.405       .  A
C292        C329   1.456       .  S
C292        C361   1.464       .  S
N293        N315   1.320       .  A
N293       Co330   2.082       .  S
C294        C332   1.456       .  S
C294        N707   1.340       .  A
C294        H339   1.082       .  S
H295        C336   1.082       .  S
C296        C688   1.458       .  S
C296        N320   1.342       .  A
C296        H325   1.082       .  S
Co297       N305   2.092       .  S
Co297       N313   2.088       .  S
N298        N305   1.320       .  A
N298       Co493   2.077   1_465  S
Co299       N492   2.077       .  S
Co299       N302   2.081       .  S
Co299       N513   2.077       .  S
Co299       N306   2.082       .  S
Co299      Cl632   2.470   1_556  S
C300        C684   1.458       .  S
C300        C355   1.465       .  S
C300        N338   1.348   1_655  A
N301        N308   1.320       .  A
N301        N331   1.324       .  A
N301       Co334   2.086       .  S
N302        N320   1.320       .  A
N302        N726   1.325       .  A
N303        C720   1.348       .  A
N303        N313   1.325       .  A
H304        C329   1.082       .  S
N305        N326   1.325       .  A
N306        N324   1.320       .  A
C307        C335   1.456       .  S
N308        C711   1.340       .  A
N308       Co524   2.078       .  S
C309        C700   1.459       .  S
C309        N337   1.342       .  A
C309        H343   1.082       .  S
C312        C697   1.459       .  S
C312        C735   1.465       .  S
C312        N333   1.348       .  A
N313        N319   1.320       .  A
N314        N316   1.320       .  A
N314       Co524   2.077       .  S
N315        C329   1.340       .  A
N316        N344   1.325       .  A
N316       Co334   2.090       .  S
H317        C340   1.082       .  S
H318        C335   1.082       .  S
N319        C682   1.340   1_455  A
N319       Co493   2.077   1_465  S
N321        N721   1.325   1_455  A
N321        N337   1.320       .  A
N321       Co330   2.081       .  S
C322        C367   1.463       .  S
C322        N326   1.349       .  A
C323        C342   1.456       .  S
C323        N696   1.340       .  A
C323        H327   1.081       .  S
N324        C335   1.340       .  A
C328        N344   1.349       .  A
Co330       N502   2.078   1_565  S
Co330       N508   2.077   1_455  S
N331        C730   1.348       .  A
C332        C741   1.462       .  S
C332        N691   1.348       .  A
N333        N709   1.325       .  A
Co334      Cl729   2.429       .  S
N338        N690   1.325   1_455  A
Cl341      Co590   2.470   1_455  S
Cl341      Co722   2.429   1_455  S
C342        C349   1.461       .  S
C342        N719   1.348   1_455  A
C345        C380   1.482       .  S
C345        N346   1.360       .  A
C345        N350   1.359       .  A
N346        C347   1.358       .  A
C347        C700   1.465       .  S
C347        N348   1.357       .  A
N348        C349   1.357       .  A
C349        N350   1.357       .  A
C351        C383   1.482       .  S
C351        N352   1.359       .  A
C351        N356   1.360   1_455  A
N352        C353   1.356       .  A
C353        C720   1.462       .  S
C353        N354   1.357       .  A
N354        C355   1.357   1_455  A
C355        N356   1.358       .  A
C357        C370   1.484       .  S
C357        N358   1.360       .  A
C357        N362   1.360       .  A
N358        C359   1.357       .  A
C359        N360   1.356       .  A
N360        C361   1.357       .  A
C361        N362   1.358       .  A
C363        C373   1.484       .  S
C363        N364   1.360       .  A
C363        N368   1.360       .  A
N364        C365   1.357   1_565  A
C365        N366   1.357       .  A
N366        C367   1.356   1_545  A
C367        N368   1.357       .  A
C369        H375   1.083       .  S
C369        C370   1.406       .  A
C369        C374   1.397       .  A
C371        H376   1.083       .  S
C371        C372   1.398       .  A
C372        H377   1.083       .  S
C373        C374   1.406       .  A
C374        H378   1.083       .  S
C379        H385   1.083       .  S
C379        C768   1.406       .  A
C379        C384   1.398       .  A
C380        C767   1.406   1_455  A
C380        C381   1.405       .  A
C381        H386   1.083       .  S
C381        C382   1.398       .  A
C382        H387   1.083       .  S
C382        C383   1.406       .  A
C383        C772   1.405   1_455  A
C384        H388   1.083       .  S
C384        C771   1.405       .  A
C389        C426   1.456       .  S
C389        C458   1.464       .  S
C389        N601   1.349       .  A
N390        N601   1.325       .  A
N390        N412   1.320       .  A
N390       Co427   2.082       .  S
C391        C429   1.456   1_655  S
C391        H436   1.082       .  S
H392        C433   1.082       .  S
C393        N417   1.342       .  A
C393        H422   1.082       .  S
Co394       N509   2.085       .  S
Co394       N402   2.092       .  S
Co394       N531   2.090       .  S
Co394       N410   2.088       .  S
Co394      Cl729   2.430       .  S
N395        C627   1.340       .  A
N395        N402   1.320       .  A
Co396       N399   2.081       .  S
Co396       N403   2.082       .  S
C397        C452   1.465       .  S
C397        N435   1.348       .  A
N398        N405   1.320   1_655  A
N398        N428   1.324       .  A
N398       Co431   2.086       .  S
N399        N417   1.320       .  A
N400        N410   1.325       .  A
H401        C426   1.082       .  S
N402        N423   1.325       .  A
N403        N421   1.320       .  A
N403        N602   1.325   1_545  A
C404        C432   1.456       .  S
C404        C656   1.463       .  S
C404        N602   1.349   1_545  A
C406        N434   1.342       .  A
C406        H440   1.082       .  S
N407        C583   1.349   1_545  A
N407        N584   1.325   1_545  A
N408        C598   1.349       .  A
N408        N597   1.325       .  A
C409        N430   1.348   1_455  A
N410        N416   1.320       .  A
N411        C631   1.340       .  A
N411        N413   1.320   1_565  A
N412        C426   1.340       .  A
N412       Co491   2.085   1_554  S
N413        N441   1.325       .  A
N413       Co431   2.090       .  S
H414        C437   1.082       .  S
H415        C432   1.082       .  S
N417       Co528   2.088       .  S
N418        N434   1.320       .  A
N418       Co427   2.081       .  S
C419        C627   1.456       .  S
C419        C464   1.463       .  S
C419        N423   1.349       .  A
C420        C439   1.456       .  S
C420        H424   1.081       .  S
N421        C432   1.340       .  A
N421       Co528   2.083       .  S
C425        C631   1.456       .  S
C425        C650   1.462       .  S
C425        N441   1.349   1_565  A
Co427      Cl632   2.470       .  S
Co431       N514   2.088   1_554  S
Co431       N518   2.083   1_554  S
C433        C613   1.456   1_545  S
C433        N589   1.340   1_545  A
N434       Co491   2.090   1_554  S
C437        C619   1.456       .  S
C437        N605   1.340       .  A
Cl438      Co685   2.430   1_554  S
Cl438      Co621   2.470       .  S
C439        C446   1.461       .  S
C442        C477   1.482       .  S
C442        N443   1.360       .  A
C442        N447   1.359       .  A
N443        C444   1.358       .  A
C444        N445   1.357       .  A
N445        C446   1.357       .  A
C446        N447   1.357       .  A
C448        C480   1.482       .  S
C448        N449   1.359       .  A
C448        N453   1.360       .  A
N449        C450   1.356       .  A
C450        N451   1.357       .  A
N451        C452   1.357       .  A
C452        N453   1.358       .  A
C454        C467   1.484       .  S
C454        N455   1.360       .  A
C454        N459   1.360       .  A
N455        C456   1.357       .  A
C456        C619   1.462       .  S
C456        N457   1.356       .  A
N457        C458   1.357       .  A
C458        N459   1.358       .  A
C460        C470   1.484       .  S
C460        N461   1.360       .  A
C460        N465   1.360       .  A
N461        C462   1.357       .  A
C462        C598   1.463       .  S
C462        N463   1.357       .  A
N463        C464   1.356       .  A
C464        N465   1.357       .  A
C466        H472   1.083       .  S
C466        C467   1.406       .  A
C466        C471   1.397       .  A
C467        C662   1.406       .  A
C468        H473   1.083       .  S
C468        C661   1.406       .  A
C468        C469   1.398       .  A
C469        H474   1.083   1_565  S
C469        C664   1.406       .  A
C470        C663   1.406       .  A
C470        C471   1.406       .  A
C471        H475   1.083       .  S
C476        H482   1.083       .  S
C476        C481   1.398       .  A
C477        C478   1.405       .  A
C478        H483   1.083       .  S
C478        C479   1.398       .  A
C479        H484   1.083       .  S
C479        C480   1.406       .  A
C481        H485   1.083       .  S
C486        C523   1.456       .  S
C486        C555   1.464       .  S
C486        N698   1.349       .  A
N487        N698   1.325       .  A
N487        N509   1.320       .  A
N487       Co524   2.082       .  S
C488        C526   1.456   1_655  S
C488        H533   1.082       .  S
H489        C530   1.082       .  S
C490        N514   1.342       .  A
C490        H519   1.082       .  S
Co491       N499   2.092       .  S
Co491       N507   2.088       .  S
Co491      Cl632   2.430   1_556  S
N492        C724   1.340       .  A
N492        N499   1.320       .  A
Co493       N496   2.081       .  S
Co493       N500   2.082       .  S
C494        C549   1.465       .  S
C494        N532   1.348       .  A
N495        N502   1.320   1_655  A
N495        N525   1.324       .  A
N495       Co528   2.086       .  S
N496        N514   1.320       .  A
N497        N507   1.325       .  A
H498        C523   1.082       .  S
N499        N520   1.325       .  A
N500        N518   1.320       .  A
N500        N699   1.325   1_545  A
C501        C529   1.456       .  S
C501        C753   1.463       .  S
C501        N699   1.349   1_545  A
C503        N531   1.342       .  A
C503        H537   1.082       .  S
N504        C680   1.349   1_545  A
N504        N681   1.325   1_545  A
N505        C695   1.349       .  A
N505        N694   1.325       .  A
C506        N527   1.348   1_455  A
N507        N513   1.320       .  A
N508        C728   1.340       .  A
N508        N510   1.320   1_565  A
N509        C523   1.340       .  A
N510        N538   1.325       .  A
N510       Co528   2.090       .  S
H511        C534   1.082       .  S
H512        C529   1.082       .  S
N515        N531   1.320       .  A
N515       Co524   2.081       .  S
C516        C724   1.456       .  S
C516        C561   1.463       .  S
C516        N520   1.349       .  A
C517        C536   1.456       .  S
C517        H521   1.081       .  S
N518        C529   1.340       .  A
C522        C728   1.456       .  S
C522        C747   1.462       .  S
C522        N538   1.349   1_565  A
Co524      Cl729   2.470       .  S
C530        C710   1.456   1_545  S
C530        N686   1.340   1_545  A
C534        C716   1.456       .  S
C534        N702   1.340       .  A
Cl535      Co588   2.430       .  S
Cl535      Co718   2.470       .  S
C536        C543   1.461       .  S
C539        C574   1.482       .  S
C539        N540   1.360       .  A
C539        N544   1.359       .  A
N540        C541   1.358       .  A
C541        N542   1.357       .  A
N542        C543   1.357       .  A
C543        N544   1.357       .  A
C545        C577   1.482       .  S
C545        N546   1.359       .  A
C545        N550   1.360       .  A
N546        C547   1.356       .  A
C547        N548   1.357       .  A
N548        C549   1.357       .  A
C549        N550   1.358       .  A
C551        C564   1.484       .  S
C551        N552   1.360       .  A
C551        N556   1.360       .  A
N552        C553   1.357       .  A
C553        C716   1.462       .  S
C553        N554   1.356       .  A
N554        C555   1.357       .  A
C555        N556   1.358       .  A
C557        C567   1.484       .  S
C557        N558   1.360       .  A
C557        N562   1.360       .  A
N558        C559   1.357       .  A
C559        C695   1.463       .  S
C559        N560   1.357       .  A
N560        C561   1.356       .  A
C561        N562   1.357       .  A
C563        H569   1.083       .  S
C563        C564   1.406       .  A
C563        C568   1.397       .  A
C564        C759   1.406       .  A
C565        H570   1.083       .  S
C565        C758   1.406       .  A
C565        C566   1.398       .  A
C566        H571   1.083   1_565  S
C566        C761   1.406       .  A
C567        C760   1.406       .  A
C567        C568   1.406       .  A
C568        H572   1.083       .  S
C573        H579   1.083       .  S
C573        C578   1.398       .  A
C574        C575   1.405       .  A
C575        H580   1.083       .  S
C575        C576   1.398       .  A
C576        H581   1.083       .  S
C576        C577   1.406       .  A
C578        H582   1.083       .  S
C583        C620   1.456       .  S
C583        C652   1.464       .  S
N584        N606   1.320       .  A
N584       Co621   2.082       .  S
C585        C623   1.456   1_655  S
C585        H630   1.082       .  S
H586        C627   1.082       .  S
C587        N611   1.342       .  A
C587        H616   1.082       .  S
Co588       N703   2.085       .  S
Co588       N596   2.092       .  S
Co588       N725   2.090       .  S
Co588       N604   2.088       .  S
N589        N596   1.320       .  A
Co590       N593   2.081       .  S
Co590       N597   2.082       .  S
C591        C646   1.465       .  S
C591        N629   1.348       .  A
N592        N599   1.320   1_655  A
N592        N622   1.324       .  A
N592       Co625   2.086       .  S
N593        N611   1.320       .  A
N594        N604   1.325       .  A
H595        C620   1.082       .  S
N596        N617   1.325       .  A
N597        N615   1.320       .  A
C598        C626   1.456       .  S
C600        N628   1.342       .  A
C600        H634   1.082       .  S
C603        N624   1.348   1_455  A
N604        N610   1.320       .  A
N605        N607   1.320       .  A
N606        C620   1.340       .  A
N606       Co685   2.085   1_554  S
N607        N635   1.325       .  A
N607       Co625   2.090       .  S
H608        C631   1.082       .  S
H609        C626   1.082       .  S
N611       Co722   2.088       .  S
N612        N628   1.320       .  A
N612       Co621   2.081       .  S
C613        C658   1.463       .  S
C613        N617   1.349       .  A
C614        C633   1.456       .  S
C614        H618   1.081       .  S
N615        C626   1.340       .  A
N615       Co722   2.083       .  S
C619        N635   1.349       .  A
Co625       N708   2.088   1_554  S
Co625       N712   2.083   1_554  S
N628       Co685   2.090   1_554  S
C633        C640   1.461       .  S
C636        C671   1.482       .  S
C636        N637   1.360       .  A
C636        N641   1.359       .  A
N637        C638   1.358       .  A
C638        N639   1.357       .  A
N639        C640   1.357       .  A
C640        N641   1.357       .  A
C642        C674   1.482       .  S
C642        N643   1.359       .  A
C642        N647   1.360       .  A
N643        C644   1.356       .  A
C644        N645   1.357       .  A
N645        C646   1.357       .  A
C646        N647   1.358       .  A
C648        C661   1.484       .  S
C648        N649   1.360       .  A
C648        N653   1.360       .  A
N649        C650   1.357       .  A
C650        N651   1.356       .  A
N651        C652   1.357       .  A
C652        N653   1.358       .  A
C654        C664   1.484       .  S
C654        N655   1.360       .  A
C654        N659   1.360       .  A
N655        C656   1.357   1_565  A
C656        N657   1.357       .  A
N657        C658   1.356   1_545  A
C658        N659   1.357       .  A
C660        H666   1.083       .  S
C660        C661   1.406       .  A
C660        C665   1.397       .  A
C662        H667   1.083       .  S
C662        C663   1.398       .  A
C663        H668   1.083       .  S
C664        C665   1.406       .  A
C665        H669   1.083       .  S
C670        H676   1.083       .  S
C670        C675   1.398       .  A
C671        C672   1.405       .  A
C672        H677   1.083       .  S
C672        C673   1.398       .  A
C673        H678   1.083       .  S
C673        C674   1.406       .  A
C675        H679   1.083       .  S
C680        C717   1.456       .  S
C680        C749   1.464       .  S
N681        N703   1.320       .  A
N681       Co718   2.082       .  S
C682        C720   1.456   1_655  S
C682        H727   1.082       .  S
H683        C724   1.082       .  S
C684        N708   1.342       .  A
C684        H713   1.082       .  S
Co685       N693   2.092       .  S
Co685       N701   2.088       .  S
N686        N693   1.320       .  A
Co687       N690   2.081       .  S
Co687       N694   2.082       .  S
C688        C743   1.465       .  S
C688        N726   1.348       .  A
N689        N696   1.320   1_655  A
N689        N719   1.324       .  A
N689       Co722   2.086       .  S
N690        N708   1.320       .  A
N691        N701   1.325       .  A
H692        C717   1.082       .  S
N693        N714   1.325       .  A
N694        N712   1.320       .  A
C695        C723   1.456       .  S
C697        N725   1.342       .  A
C697        H731   1.082       .  S
C700        N721   1.348   1_455  A
N701        N707   1.320       .  A
N702        N704   1.320       .  A
N703        C717   1.340       .  A
N704        N732   1.325       .  A
N704       Co722   2.090       .  S
H705        C728   1.082       .  S
H706        C723   1.082       .  S
N709        N725   1.320       .  A
N709       Co718   2.081       .  S
C710        C755   1.463       .  S
C710        N714   1.349       .  A
C711        C730   1.456       .  S
C711        H715   1.081       .  S
N712        C723   1.340       .  A
C716        N732   1.349       .  A
C730        C737   1.461       .  S
C733        C768   1.482       .  S
C733        N734   1.360       .  A
C733        N738   1.359       .  A
N734        C735   1.358       .  A
C735        N736   1.357       .  A
N736        C737   1.357       .  A
C737        N738   1.357       .  A
C739        C771   1.482       .  S
C739        N740   1.359       .  A
C739        N744   1.360       .  A
N740        C741   1.356       .  A
C741        N742   1.357       .  A
N742        C743   1.357       .  A
C743        N744   1.358       .  A
C745        C758   1.484       .  S
C745        N746   1.360       .  A
C745        N750   1.360       .  A
N746        C747   1.357       .  A
C747        N748   1.356       .  A
N748        C749   1.357       .  A
C749        N750   1.358       .  A
C751        C761   1.484       .  S
C751        N752   1.360       .  A
C751        N756   1.360       .  A
N752        C753   1.357   1_565  A
C753        N754   1.357       .  A
N754        C755   1.356   1_545  A
C755        N756   1.357       .  A
C757        H763   1.083       .  S
C757        C758   1.406       .  A
C757        C762   1.397       .  A
C759        H764   1.083       .  S
C759        C760   1.398       .  A
C760        H765   1.083       .  S
C761        C762   1.406       .  A
C762        H766   1.083       .  S
C767        H773   1.083       .  S
C767        C772   1.398       .  A
C768        C769   1.405       .  A
C769        H774   1.083       .  S
C769        C770   1.398       .  A
C770        H775   1.083       .  S
C770        C771   1.406       .  A
C772        H776   1.083       .  S
