geometry optimzed in LAMMPS
_audit_creation_date              2020-11-30 
_audit_creation_method            'lammps2cif' 
_symmetry_space_group_name_H-M    'P1' 
_symmetry_Int_Tables_number       1 
_symmetry_cell_setting            triclinic 
loop_ 
_symmetry_equiv_pos_as_xyz 
  x,y,z 
_cell_length_a                    40.121082044269166 
_cell_length_b                    40.6218624251004 
_cell_length_c                    40.418749278470095 
_cell_angle_alpha                 87.63443925301965 
_cell_angle_beta                  86.87398371709244 
_cell_angle_gamma                 92.3958675112618 
loop_ 
_atom_site_label 
_atom_site_type_symbol 
_atom_site_fract_x 
_atom_site_fract_y 
_atom_site_fract_z 
_atom_site_charge 
C1          C  0.09952300  0.27156394  0.51758682     0.03230
C2          C  0.13280093  0.27092339  0.02689488    -0.12920
C3          C  0.14797028  0.24064343  0.03221486     0.00730
C4          C  0.12953150  0.21118156  0.02776858    -0.11440
C5          C  0.09618564  0.21157664  0.51893230     0.03230
C6          C  0.08206483  0.24178905  0.51215224    -0.10860
H7          H  0.14619724  0.29379159  0.03164801     0.08820
H8          H  0.14031557  0.18778070  0.03372261     0.06350
H9          H  0.05615345  0.24214887  0.50598776     0.06200
C10         C  0.32321208  0.19232925  0.10280978     0.03230
C11         C  0.28977988  0.19527453  0.09463187    -0.12920
C12         C  0.27676886  0.22639728  0.08886617     0.00730
C13         C  0.29702295  0.25469725  0.09301034    -0.11440
C14         C  0.33099348  0.25241291  0.09970589     0.03230
C15         C  0.34374197  0.22104282  0.10481439    -0.10860
H16         H  0.27416688  0.17329974  0.09162571     0.08820
H17         H  0.28689977  0.27868168  0.08846825     0.06350
H18         H  0.37021057  0.21880959  0.10772170     0.06200
C19         C  0.17130788  0.44683226  0.20565112     0.03230
C20         C  0.17627128  0.45738333  0.23782379    -0.12920
C21         C  0.20868326  0.46453421  0.24791583     0.00730
C22         C  0.23620442  0.46019406  0.22576589    -0.11440
C23         C  0.23153467  0.44932518  0.19370547     0.03230
C24         C  0.19910277  0.44224758  0.18404278    -0.10860
H25         H  0.15487726  0.46152930  0.25443271     0.08820
H26         H  0.26122942  0.46621668  0.23314051     0.06350
H27         H  0.19542009  0.43479581  0.15901148     0.06200
C28         C  0.25490782  0.03404789  0.42410022     0.03230
C29         C  0.25370689  0.02507713  0.39087844    -0.12920
C30         C  0.22270463  0.01940026  0.37692603     0.00730
C31         C  0.19312689  0.02340510  0.39630270    -0.11440
C32         C  0.19409241  0.03218565  0.42951571     0.03230
C33         C  0.22499147  0.03887313  0.44263002    -0.10860
H34         H  0.27651417  0.01961528  0.37696890     0.08820
H35         H  0.16924251  0.01744297  0.38618781     0.06350
H36         H  0.22586163  0.04397235  0.46868987     0.06200
C37         C  0.01070427  0.12220401  0.27303375     0.03230
C38         C  0.00314957  0.15544631  0.27600870    -0.12920
C39         C  0.99911257  0.16890955  0.30736434     0.00730
C40         C  0.00300109  0.14868430  0.33574913    -0.11440
C41         C  0.00928722  0.11498968  0.33322982     0.03230
C42         C  0.01408780  0.10218256  0.30169147    -0.10860
H43         H  0.99865363  0.17033511  0.25395278     0.08820
H44         H  0.99808902  0.15842042  0.36001138     0.06350
H45         H  0.01691289  0.07594782  0.29940214     0.06200
C46         C  0.42692601  0.34453124  0.35293232     0.03230
C47         C  0.43709854  0.31181788  0.35176625    -0.12920
C48         C  0.44192588  0.29699126  0.32103835     0.00730
C49         C  0.43717222  0.31557006  0.29167914    -0.11440
C50         C  0.42840699  0.34865474  0.29261122     0.03230
C51         C  0.42149752  0.36213527  0.32326789    -0.10860
H52         H  0.44269158  0.29849739  0.37441847     0.08820
H53         H  0.44241481  0.30490171  0.26794714     0.06350
H54         H  0.41497256  0.38772769  0.32407021     0.06200
O55         O  0.02654734  0.41436895  0.01022295    -0.86380
O56         O  0.43071621  0.46160557  0.16889619    -0.86550
O57         O  0.03237552  0.43084899  0.12613191    -0.88220
O58         O  0.44160840  0.37888002  0.09430874    -0.86970
O59         O  0.39872728  0.39595618  0.06380314    -0.86570
O60         O  0.05404398  0.48395696  0.11801875    -0.87940
O61         O  0.46120943  0.41842844  0.15156025    -0.86410
O62         O  0.01535075  0.39164357  0.06279538    -0.86000
Zr63       Zr  0.48127530  0.42743055  0.09490502     2.84310
O64         O  0.42792081  0.44822573  0.09737810    -1.07980
O65         O  0.01781378  0.46239677  0.06090310    -1.08710
C66         C  0.02860163  0.39130771  0.03306153     1.06720
C67         C  0.44409282  0.43336999  0.17368703     1.06670
C68         C  0.05392153  0.45453304  0.13124635     1.09650
C69         C  0.41312833  0.37404839  0.08102925     1.07430
H70         H  0.49126280  0.47868115  0.13906891     0.32990
O71         O  0.48326295  0.47985303  0.11697323    -1.28930
H72         H  0.46053809  0.40896044  0.03274754     0.32660
O73         O  0.46151819  0.43068896  0.04157128    -1.30610
O74         O  0.39906596  0.05145364  0.11692698    -0.86380
O75         O  0.49708433  0.50531866  0.45909190    -0.87870
O76         O  0.01400147  0.04483360  0.13412999    -0.86450
O77         O  0.35823443  0.45048578  0.08168445    -0.86500
O78         O  0.41261602  0.42312339  0.99192810    -0.86220
O79         O  0.06924828  0.01593254  0.04382277    -0.86020
O80         O  0.48449558  0.08784187  0.03339646    -0.86390
O81         O  0.39436827  0.03695938  0.00211788    -0.85860
O82         O  0.02802159  0.07176417  0.06383872    -0.86920
O83         O  0.37251705  0.48404115  0.01051239    -0.86080
O84         O  0.46036027  0.03504216  0.15598151    -0.86480
O85         O  0.05417035  0.48629983  0.99957319    -0.86200
O86         O  0.46629736  0.43386337  0.47059374    -0.85850
O87         O  0.37262573  0.47759764  0.12801299    -0.86260
O88         O  0.40961854  0.07424336  0.06418641    -0.86550
O89         O  0.46593856  0.04830930  0.47563079    -0.87890
Zr90       Zr  0.42956504  0.50020257  0.11996610     2.83100
Zr91       Zr  0.49717102  0.46640964  0.00779142     2.83500
Zr92       Zr  0.01914900  0.01498259  0.08259727     2.84090
Zr93       Zr  0.40832994  0.45207001  0.04408593     2.83360
Zr94       Zr  0.44562815  0.03939214  0.03257672     2.84220
O95         O  0.44368550  0.48736075  0.00976618    -1.08460
O96         O  0.46550033  0.03584726  0.08591114    -1.07960
C97         C  0.39544523  0.07366681  0.09361573     1.06700
C98         C  0.48377088  0.03351546  0.45389624     1.09310
C99         C  0.48999733  0.04859534  0.15622870     1.06870
C100        C  0.35212879  0.46065695  0.11120332     1.07230
C101        C  0.43659697  0.42088622  0.46946931     1.06810
C102        C  0.07526663  0.50369218  0.01503239     1.06360
C103        C  0.01299403  0.09308711  0.04632334     1.06790
C104        C  0.37182104  0.01386387  0.99852378     1.06300
H105        H  0.01366686  0.03319103  0.01550904     0.32980
O106        O  0.49899507  0.01861283  0.02967653    -1.29560
H107        H  0.38718803  0.01214846  0.06751541     0.33000
O108        O  0.40951580  0.50410433  0.06656457    -1.30940
C109        C  0.44057600  0.41535456  0.20647948    -0.05360
C110        C  0.46492653  0.39257821  0.21373858    -0.32790
C111        C  0.46092154  0.37070388  0.24121021     0.36460
C112        C  0.43193545  0.37091720  0.26240745    -0.05720
C113        C  0.40838064  0.39498910  0.25647332    -0.32690
C114        C  0.41285409  0.41751849  0.22907898     0.36370
H115        H  0.48739119  0.39138018  0.19774777     0.16740
O116        O  0.48641146  0.35039702  0.24806692    -0.60190
H117        H  0.38644216  0.39634139  0.27312803     0.16750
O118        O  0.38966066  0.44082311  0.22437904    -0.60280
H119        H  0.39764557  0.46014111  0.23643413     0.43750
H120        H  0.48621296  0.33367612  0.23085897     0.43700
C121        C  0.42793702  0.36316043  0.38365724    -0.05360
C122        C  0.44573033  0.39370453  0.38186373    -0.32870
C123        C  0.44701909  0.41316611  0.40922559     0.36460
C124        C  0.43080181  0.40214215  0.43969780    -0.05720
C125        C  0.41252999  0.37174802  0.44175797    -0.32690
C126        C  0.41122114  0.35209155  0.41391803     0.36370
H127        H  0.45903353  0.40263236  0.35896951     0.16740
O128        O  0.46373541  0.44342812  0.40573901    -0.60190
H129        H  0.40016425  0.36282116  0.46510773     0.16750
O130        O  0.39294856  0.32271596  0.41625093    -0.60280
H131        H  0.40703477  0.30701333  0.42793386     0.43750
H132        H  0.48782276  0.43873738  0.40531134     0.43700
C133        C  0.49638359  0.07001208  0.18430504    -0.05360
C134        C  0.02862753  0.07369439  0.19613055    -0.32790
C135        C  0.03409599  0.09161232  0.22448418     0.36460
C136        C  0.00728081  0.10652196  0.24101189    -0.05720
C137        C  0.47554572  0.10417935  0.22837316    -0.32690
C138        C  0.46984804  0.08596459  0.20054733     0.36370
H139        H  0.04937717  0.06176863  0.18408344     0.16740
O140        O  0.06548275  0.09383234  0.23625360    -0.60190
H141        H  0.45472202  0.11560413  0.24090043     0.16750
O142        O  0.43820773  0.08426303  0.18924195    -0.60280
H143        H  0.42551704  0.06766863  0.20422698     0.43750
H144        H  0.07592733  0.11455955  0.22584026     0.43700
C145        C  0.48934499  0.05152976  0.42111629    -0.05360
C146        C  0.01822595  0.04733497  0.40060779    -0.32790
C147        C  0.02523307  0.06747374  0.37160121     0.36460
C148        C  0.00337444  0.09239886  0.36304854    -0.05720
C149        C  0.47397163  0.09544203  0.38276921    -0.32690
C150        C  0.46688161  0.07558456  0.41137663     0.36370
H151        H  0.03592717  0.02922383  0.40758576     0.16740
O152        O  0.05421341  0.06374798  0.35278587    -0.60190
H153        H  0.45609595  0.11345396  0.37592554     0.16750
O154        O  0.43741075  0.07963228  0.42935158    -0.60280
H155        H  0.44115728  0.09995262  0.44170125     0.43750
H156        H  0.05016571  0.04351866  0.34040321     0.43700
C157        C  0.48528715  0.20209801  0.31079694    -0.05360
C158        C  0.45585767  0.20939271  0.29522621    -0.32790
C159        C  0.44111771  0.23977723  0.29903651     0.36460
C160        C  0.45566765  0.26361879  0.31883137    -0.05720
C161        C  0.48499537  0.25626996  0.33465274    -0.32690
C162        C  0.49973306  0.22577144  0.33085736     0.36370
H163        H  0.44386394  0.19118227  0.28043399     0.16740
O164        O  0.41174665  0.24551709  0.28434195    -0.60190
H165        H  0.49696505  0.27452765  0.34939968     0.16750
O166        O  0.02900655  0.21985731  0.34564246    -0.60280
H167        H  0.02259775  0.21569264  0.36954144     0.43750
H168        H  0.41782893  0.24839376  0.26024742     0.43700
C169        C  0.16411736  0.02613879  0.45244594    -0.05360
C170        C  0.14719023  0.99536689  0.45214596    -0.32790
C171        C  0.11957680  0.48737453  0.47371970     0.36460
C172        C  0.10809044  0.01025879  0.49667744    -0.05720
C173        C  0.12576300  0.04070998  0.99805446    -0.32690
C174        C  0.15382252  0.04870118  0.47621517     0.36370
H175        H  0.15555580  0.47708987  0.43511998     0.16740
O176        O  0.10407488  0.45677048  0.47229869    -0.60190
H177        H  0.11711269  0.05884857  0.01507444     0.16750
O178        O  0.16995066  0.07906490  0.47715756    -0.60280
H179        H  0.18272003  0.07804370  0.99749184     0.43750
H180        H  0.09134335  0.45770627  0.45193176     0.43700
C181        C  0.34211643  0.02134706  0.47996933    -0.05360
C182        C  0.34437622  0.04276200  0.45157422    -0.32790
C183        C  0.31635454  0.04717313  0.43257583     0.36460
C184        C  0.28568075  0.03049750  0.44236825    -0.05720
C185        C  0.28364741  0.00951409  0.47087890    -0.32690
C186        C  0.31116127  0.00521312  0.98976475     0.36370
H187        H  0.36795824  0.05540542  0.44369099     0.16740
O188        O  0.31891650  0.06832301  0.40514051    -0.60190
H189        H  0.26039523  0.99617865  0.47869536     0.16750
O190        O  0.30738301  0.48502339  0.01791492    -0.60280
H191        H  0.30283519  0.50000016  0.03623171     0.43750
H192        H  0.32975320  0.05573217  0.38733417     0.43700
C193        C  0.13763088  0.44578765  0.19226681    -0.05360
C194        C  0.12617312  0.41819284  0.17544483    -0.32790
C195        C  0.09755855  0.41960924  0.15692052     0.36460
C196        C  0.08039773  0.44908427  0.15474401    -0.05720
C197        C  0.09081884  0.47581399  0.17327294    -0.32690
C198        C  0.11902593  0.47436099  0.19186658     0.36370
H199        H  0.14029109  0.39603270  0.17551860     0.16740
O200        O  0.08779739  0.39281832  0.13967105    -0.60190
H201        H  0.07777788  0.49864831  0.17226938     0.16750
O202        O  0.13007185  0.50218756  0.20682229    -0.60280
H203        H  0.11574653  0.00305103  0.22752569     0.43750
H204        H  0.09996554  0.39580722  0.11765649     0.43700
C205        C  0.26047424  0.44816579  0.16950113    -0.05360
C206        C  0.28789135  0.42968213  0.17750773    -0.32790
C207        C  0.31707990  0.43143875  0.15685249     0.36460
C208        C  0.31933876  0.45229377  0.12804684    -0.05720
C209        C  0.29140912  0.46935725  0.11900252    -0.32690
C210        C  0.26191473  0.46717168  0.13937264     0.36370
H211        H  0.28689013  0.41444630  0.20022025     0.16740
O212        O  0.34337655  0.41280735  0.16510286    -0.60190
H213        H  0.29306869  0.48583188  0.09715885     0.16750
O214        O  0.23569573  0.48589805  0.13108998    -0.60280
H215        H  0.22453111  0.47375799  0.11367734     0.43750
H216        H  0.35985289  0.42844189  0.17396405     0.43700
C217        C  0.21358682  0.47831901  0.28089201    -0.05360
C218        C  0.20049233  0.46091276  0.30970666    -0.32790
C219        C  0.20417714  0.47372909  0.34101312     0.36460
C220        C  0.22070922  0.00474260  0.34397176    -0.05720
C221        C  0.23427753  0.02198064  0.31523049    -0.32690
C222        C  0.23060603  0.00910869  0.28384269     0.36370
H223        H  0.18752093  0.43717088  0.30791214     0.16740
O224        O  0.19149751  0.45572087  0.36865793    -0.60190
H225        H  0.24693506  0.04586689  0.31707731     0.16750
O226        O  0.24293572  0.02722453  0.25613958    -0.60280
H227        H  0.22383419  0.03970940  0.24855009     0.43750
H228        H  0.21066245  0.44382332  0.37697823     0.43700
C229        C  0.33812493  0.15945856  0.10407600    -0.05360
C230        C  0.33275566  0.13808979  0.07828396    -0.32790
C231        C  0.34980209  0.10895931  0.07609491     0.36460
C232        C  0.37280641  0.10063023  0.09986768    -0.05720
C233        C  0.37659962  0.12064558  0.12695740    -0.32690
C234        C  0.35963314  0.15014011  0.12903035     0.36370
H235        H  0.31647376  0.14473469  0.05878324     0.16740
O236        O  0.34491253  0.08943269  0.04970928    -0.60190
H237        H  0.39404767  0.11438674  0.14550607     0.16750
O238        O  0.36415123  0.16970064  0.15544545    -0.60280
H239        H  0.38717811  0.17955183  0.15191308     0.43750
H240        H  0.32857529  0.07169388  0.05827021     0.43700
C241        C  0.35374493  0.28250405  0.09555285    -0.05360
C242        C  0.34915201  0.30464026  0.06890164    -0.32790
C243        C  0.36853255  0.33374672  0.06382941     0.36460
C244        C  0.39435693  0.34148787  0.08521927    -0.05720
C245        C  0.40007500  0.31873659  0.11129248    -0.32690
C246        C  0.38002113  0.28937990  0.11654289     0.36370
H247        H  0.33023810  0.29941772  0.05147461     0.16740
O248        O  0.36212003  0.35417888  0.03722401    -0.60190
H249        H  0.41944681  0.32407670  0.12818458     0.16750
O250        O  0.38524051  0.26850786  0.14312652    -0.60280
H251        H  0.40636095  0.25773900  0.13720392     0.43750
H252        H  0.34211387  0.36616360  0.04445821     0.43700
C253        C  0.07411624  0.18147025  0.02472889    -0.05360
C254        C  0.07483397  0.16427293  0.05541877    -0.32790
C255        C  0.05391541  0.13654400  0.06319443     0.36460
C256        C  0.03130689  0.12530736  0.04012672    -0.05720
C257        C  0.02961365  0.14311096  0.00972793    -0.32690
C258        C  0.05074076  0.17119950  0.00199756     0.36370
H259        H  0.09156607  0.17260332  0.07382546     0.16740
O260        O  0.05534421  0.12092369  0.09383735    -0.60190
H261        H  0.51278988  0.13461872  0.99148511     0.16750
O262        O  0.04953179  0.18747378  0.47167115    -0.60280
H263        H  0.52832272  0.19919009  0.47272130     0.43750
H264        H  0.07601274  0.10833528  0.09256451     0.43700
C265        C  0.08085049  0.30224921  0.01923106    -0.05360
C266        C  0.09355232  0.33177537  0.00296018    -0.32790
C267        C  0.07625212  0.36104000  0.00577054     0.36460
C268        C  0.04620275  0.36102184  0.02549233    -0.05720
C269        C  0.03347853  0.33134627  0.04121289    -0.32690
C270        C  0.05042324  0.30232693  0.03840684     0.36370
H271        H  0.11701489  0.33218394  0.98832245     0.16740
O272        O  0.08989366  0.38971298  0.99082628    -0.60190
H273        H  0.51043928  0.33069952  0.05659707     0.16750
O274        O  0.03822273  0.27466592  0.05654517    -0.60280
H275        H  0.51761938  0.26738913  0.04590216     0.43750
H276        H  0.08269706  0.38963936  0.96774516     0.43700
C277        C  0.18155079  0.23886995  0.04595692    -0.05360
C278        C  0.20517994  0.21853468  0.03137551    -0.32790
C279        C  0.23595595  0.21406134  0.04531141     0.36460
C280        C  0.24357090  0.22970231  0.07466687    -0.05720
C281        C  0.22011042  0.25027938  0.08913288    -0.32690
C282        C  0.18929638  0.25486769  0.07509096     0.36370
H283        H  0.19970514  0.20602688  0.00900246     0.16740
O284        O  0.25862631  0.19468992  0.02972191    -0.60190
H285        H  0.22554747  0.26252509  0.11165835     0.16750
O286        O  0.16616909  0.27342892  0.09110787    -0.60280
H287        H  0.17408778  0.29668405  0.08634961     0.43750
H288        H  0.27336208  0.21018382  0.01536744     0.43700
C289        C  0.09951185  0.27153820  0.01759160     0.03230
C290        C  0.13281080  0.27094661  0.52689372    -0.12920
C291        C  0.14797658  0.24066521  0.53221745     0.00730
C292        C  0.12953457  0.21120461  0.52777305    -0.11440
C293        C  0.09618081  0.21155048  0.01893302     0.03230
C294        C  0.08205520  0.24176192  0.01215862    -0.10860
H295        H  0.14620872  0.29381407  0.53164627     0.08820
H296        H  0.14031468  0.18780277  0.53373137     0.06350
H297        H  0.05614254  0.24211966  0.00599835     0.06200
C298        C  0.32322044  0.19234577  0.60280783     0.03230
C299        C  0.28978788  0.19529265  0.59463136    -0.12920
C300        C  0.27677928  0.22641596  0.58886133     0.00730
C301        C  0.29703654  0.25471529  0.59299916    -0.11440
C302        C  0.33100683  0.25242919  0.59969478     0.03230
C303        C  0.34375278  0.22105855  0.60480770    -0.10860
H304        H  0.27417258  0.17331843  0.59162975     0.08820
H305        H  0.28691576  0.27870018  0.58845309     0.06350
H306        H  0.37022125  0.21882410  0.60771502     0.06200
C307        C  0.17131529  0.44683662  0.70564274     0.03230
C308        C  0.17627878  0.45738353  0.73781666    -0.12920
C309        C  0.20869087  0.46453066  0.74790985     0.00730
C310        C  0.23621201  0.46019176  0.72575957    -0.11440
C311        C  0.23154190  0.44932680  0.69369775     0.03230
C312        C  0.19910984  0.44225210  0.68403411    -0.10860
H313        H  0.15488484  0.46152948  0.75442571     0.08820
H314        H  0.26123709  0.46621251  0.73313507     0.06350
H315        H  0.19542678  0.43480335  0.65900188     0.06200
C316        C  0.25489536  0.03403037  0.92410668     0.03230
C317        C  0.25369825  0.02506206  0.89088150    -0.12920
C318        C  0.22269718  0.01937814  0.87692751     0.00730
C319        C  0.19311740  0.02337648  0.89630373    -0.11440
C320        C  0.19407975  0.03215780  0.92951709     0.03230
C321        C  0.22497750  0.03885203  0.94263199    -0.10860
H322        H  0.27650700  0.01960430  0.87697209     0.08820
H323        H  0.16923460  0.01740922  0.88618800     0.06350
H324        H  0.22584626  0.04395222  0.96869124     0.06200
C325        C  0.01071097  0.12220373  0.77304928     0.03230
C326        C  0.00315498  0.15544525  0.77602578    -0.12920
C327        C  0.99911251  0.16890599  0.80738195     0.00730
C328        C  0.00299853  0.14867884  0.83576636    -0.11440
C329        C  0.00928823  0.11498474  0.83324527     0.03230
C330        C  0.01409272  0.10218038  0.80170598    -0.10860
H331        H  0.99866121  0.17033525  0.75397001     0.08820
H332        H  0.99808271  0.15841294  0.86002890     0.06350
H333        H  0.01691926  0.07594609  0.79941474     0.06200
C334        C  0.42691849  0.34453209  0.85292396     0.03230
C335        C  0.43709411  0.31181970  0.85175999    -0.12920
C336        C  0.44192827  0.29699281  0.82103323     0.00730
C337        C  0.43717878  0.31557085  0.79167221    -0.11440
C338        C  0.42840997  0.34865499  0.79260185     0.03230
C339        C  0.42149380  0.36213511  0.82325778    -0.10860
H340        H  0.44268375  0.29849970  0.87441356     0.08820
H341        H  0.44242538  0.30490176  0.76794136     0.06350
H342        H  0.41496491  0.38772642  0.82405868     0.06200
O343        O  0.02656023  0.41439600  0.51021741    -0.86380
O344        O  0.43071903  0.46161437  0.66889109    -0.86550
O345        O  0.03238313  0.43086938  0.62612531    -0.88220
O346        O  0.44162000  0.37889771  0.59429795    -0.86970
O347        O  0.39873770  0.39597218  0.56379271    -0.86570
O348        O  0.05404953  0.48397836  0.61801562    -0.87940
O349        O  0.46121668  0.41844111  0.65155315    -0.86410
O350        O  0.01536199  0.39166780  0.56278837    -0.86000
Zr351      Zr  0.48128328  0.42745048  0.59489921     2.84310
O352        O  0.42792739  0.44824205  0.59737220    -1.07980
O353        O  0.01782114  0.46242029  0.56090059    -1.08710
C354        C  0.02861422  0.39133382  0.53305498     1.06720
C355        C  0.44409725  0.43337911  0.67368045     1.06670
C356        C  0.05392860  0.45455346  0.63124065     1.09650
C357        C  0.41314064  0.37406459  0.58101754     1.07430
H358        H  0.49126721  0.47869817  0.63906655     0.32990
O359        O  0.48326777  0.47987139  0.61697073    -1.28930
H360        H  0.46054958  0.40898203  0.53274106     0.32660
O361        O  0.46152772  0.43071028  0.54156547    -1.30610
O362        O  0.39907585  0.05146868  0.61692796    -0.86380
O363        O  0.49707938  0.50529602  0.95909404    -0.87870
O364        O  0.01401256  0.04485854  0.63412980    -0.86450
O365        O  0.35824201  0.45049861  0.58167696    -0.86500
O366        O  0.41262992  0.42314016  0.49192247    -0.86220
O367        O  0.06925866  0.01597333  0.54381654    -0.86020
O368        O  0.48449520  0.08786973  0.53339260    -0.86390
O369        O  0.39437080  0.03697015  0.50211671    -0.85860
O370        O  0.02802305  0.07179851  0.56383573    -0.86920
O371        O  0.37252393  0.48405866  0.51050603    -0.86080
O372        O  0.46037333  0.03505824  0.65598322    -0.86480
O373        O  0.05417790  0.48632919  0.49957302    -0.86200
O374        O  0.46628312  0.43384379  0.97059670    -0.85850
O375        O  0.37263008  0.47760923  0.62800734    -0.86260
O376        O  0.40962177  0.07425917  0.56418663    -0.86550
O377        O  0.46593378  0.04828790  0.97563537    -0.87890
Zr378      Zr  0.42956836  0.50021714  0.61996382     2.83100
Zr379      Zr  0.49717974  0.46643409  0.50778870     2.83500
Zr380      Zr  0.01916046  0.01501531  0.58259172     2.84090
Zr381      Zr  0.40833802  0.45208795  0.54407936     2.83360
Zr382      Zr  0.44563535  0.03941369  0.53257368     2.84220
O383        O  0.44369275  0.48738215  0.50976228    -1.08460
O384        O  0.46550879  0.03587151  0.58590843    -1.07960
C385        C  0.39545085  0.07368140  0.59361714     1.06700
C386        C  0.48376513  0.03349353  0.95390074     1.09310
C387        C  0.49000893  0.04861435  0.65623079     1.06870
C388        C  0.35213492  0.46066803  0.61119623     1.07230
C389        C  0.43658127  0.42086991  0.96947298     1.06810
C390        C  0.07527296  0.50372182  0.51503349     1.06360
C391        C  0.01299238  0.09311920  0.54632057     1.06790
C392        C  0.37181655  0.01387136  0.49853666     1.06300
H393        H  0.01367525  0.03322179  0.51550350     0.32980
O394        O  0.49900573  0.01864174  0.52967140    -1.29560
H395        H  0.38720092  0.01216224  0.56751653     0.33000
O396        O  0.40952083  0.50412102  0.56656126    -1.30940
C397        C  0.44057885  0.41535930  0.70647124    -0.05360
C398        C  0.46492849  0.39258117  0.71372857    -0.32790
C399        C  0.46092334  0.37070487  0.74119900     0.36460
C400        C  0.43193777  0.37091751  0.76239719    -0.05720
C401        C  0.40838286  0.39498976  0.75646362    -0.32690
C402        C  0.41285661  0.41752120  0.72907072     0.36370
H403        H  0.48739317  0.39138375  0.69773770     0.16740
O404        O  0.48641315  0.35039730  0.74805393    -0.60190
H405        H  0.38644408  0.39634126  0.77311804     0.16750
O406        O  0.38966326  0.44082625  0.72437246    -0.60280
H407        H  0.39764797  0.46014313  0.73642933     0.43750
H408        H  0.48621432  0.33367770  0.73084471     0.43700
C409        C  0.42792061  0.36316052  0.88365037    -0.05360
C410        C  0.44570360  0.39371028  0.88185993    -0.32870
C411        C  0.44699035  0.41316692  0.90922555     0.36460
C412        C  0.43078193  0.40213237  0.93969841    -0.05720
C413        C  0.41251809  0.37173399  0.94175533    -0.32690
C414        C  0.41121095  0.35208242  0.91391161     0.36370
H415        H  0.45900268  0.40264553  0.85896616     0.16740
O416        O  0.46369786  0.44343359  0.90574304    -0.60190
H417        H  0.40015869  0.36279960  0.96510556     0.16750
O418        O  0.39294695  0.32270181  0.91624180    -0.60280
H419        H  0.40703554  0.30700372  0.92792784     0.43750
H420        H  0.48778703  0.43874966  0.90530928     0.43700
C421        C  0.49639364  0.07002634  0.68431114    -0.05360
C422        C  0.02863821  0.07371199  0.69613454    -0.32790
C423        C  0.03410530  0.09162430  0.72449217     0.36460
C424        C  0.00728793  0.10652454  0.74102610    -0.05720
C425        C  0.47555183  0.10417833  0.72839023    -0.32690
C426        C  0.46985560  0.08596948  0.70056030     0.36370
H427        H  0.04938962  0.06179319  0.68408240     0.16740
O428        O  0.06549301  0.09384831  0.73625892    -0.60190
H429        H  0.45472660  0.11559639  0.74092223     0.16750
O430        O  0.43821420  0.08426477  0.68925767    -0.60280
H431        H  0.42552773  0.06766528  0.70424029     0.43750
H432        H  0.07593245  0.11457925  0.72584881     0.43700
C433        C  0.48934144  0.05151086  0.92112231    -0.05360
C434        C  0.01822485  0.04732089  0.90061589    -0.32790
C435        C  0.02523393  0.06746473  0.87161278     0.36460
C436        C  0.00337497  0.09239044  0.86306178    -0.05720
C437        C  0.47397014  0.09542902  0.88278044    -0.32690
C438        C  0.46687793  0.07556626  0.91138397     0.36370
H439        H  0.03592636  0.02920973  0.90759307     0.16740
O440        O  0.05421632  0.06374309  0.85279933    -0.60190
H441        H  0.45609413  0.11344104  0.87593788     0.16750
O442        O  0.43740470  0.07960948  0.92935657    -0.60280
H443        H  0.44114779  0.09992859  0.94170907     0.43750
H444        H  0.05017151  0.04351496  0.84041400     0.43700
C445        C  0.48528550  0.20209424  0.81081277    -0.05360
C446        C  0.45586080  0.20938994  0.79523370    -0.32790
C447        C  0.44112280  0.23977654  0.79903608     0.36460
C448        C  0.45566967  0.26361947  0.81883135    -0.05720
C449        C  0.48499200  0.25626934  0.83466189    -0.32690
C450        C  0.49972782  0.22576870  0.83087434     0.36370
H451        H  0.44386969  0.19117902  0.78044011     0.16740
O452        O  0.41175629  0.24551713  0.78433332    -0.60190
H453        H  0.49695907  0.27452757  0.84941012     0.16750
O454        O  0.02899665  0.21985381  0.84566764    -0.60280
H455        H  0.02258129  0.21568966  0.86956532     0.43750
H456        H  0.41784477  0.24839141  0.76023982     0.43700
C457        C  0.16410398  0.02610787  0.95244748    -0.05360
C458        C  0.14717304  0.99533827  0.95214035    -0.32790
C459        C  0.11956674  0.48734808  0.97371188     0.36460
C460        C  0.10807771  0.01022158  0.99668008    -0.05720
C461        C  0.12577232  0.04074986  0.49804503    -0.32690
C462        C  0.15381231  0.04866456  0.97622414     0.36370
H463        H  0.15554426  0.47706717  0.93510939     0.16740
O464        O  0.10406185  0.45674601  0.97228504    -0.60190
H465        H  0.11711883  0.05889232  0.51505913     0.16750
O466        O  0.16994243  0.07902666  0.97717345    -0.60280
H467        H  0.18273362  0.07808516  0.49747253     0.43750
H468        H  0.09132951  0.45768750  0.95191881     0.43700
C469        C  0.34213061  0.02135518  0.97994737    -0.05360
C470        C  0.34436973  0.04276657  0.95156692    -0.32790
C471        C  0.31634141  0.04716363  0.93257750     0.36460
C472        C  0.28566678  0.03048473  0.94238674    -0.05720
C473        C  0.28364845  0.00951161  0.97092363    -0.32690
C474        C  0.31112951  0.00523412  0.48978881     0.36370
H475        H  0.36795078  0.05540405  0.94368306     0.16740
O476        O  0.31890164  0.06831110  0.90514074    -0.60190
H477        H  0.26040800  0.99614618  0.97873378     0.16750
O478        O  0.30738842  0.48504155  0.51791016    -0.60280
H479        H  0.30284085  0.50001822  0.53622709     0.43750
H480        H  0.32974312  0.05572106  0.88733638     0.43700
C481        C  0.13763897  0.44579735  0.69225782    -0.05360
C482        C  0.12617731  0.41820420  0.67543595    -0.32790
C483        C  0.09756293  0.41962480  0.65691204     0.36460
C484        C  0.08040634  0.44910246  0.65473582    -0.05720
C485        C  0.09083197  0.47583110  0.67326388    -0.32690
C486        C  0.11903891  0.47437386  0.69185720     0.36370
H487        H  0.14029194  0.39604190  0.67550981     0.16740
O488        O  0.08779759  0.39283502  0.63966299    -0.60190
H489        H  0.07779439  0.49866742  0.67226053     0.16750
O490        O  0.13008936  0.50219883  0.70681277    -0.60280
H491        H  0.11596612  0.00318972  0.72735633     0.43750
H492        H  0.09996517  0.39582250  0.61764803     0.43700
C493        C  0.26048113  0.44816946  0.66949288    -0.05360
C494        C  0.28789851  0.42968536  0.67749757    -0.32790
C495        C  0.31708695  0.43144428  0.65684223     0.36460
C496        C  0.31934519  0.45230194  0.62803850    -0.05720
C497        C  0.29141524  0.46936566  0.61899578    -0.32690
C498        C  0.26192103  0.46717791  0.63936596     0.36370
H499        H  0.28689768  0.41444759  0.70020880     0.16740
O500        O  0.34338419  0.41281286  0.66509078    -0.60190
H501        H  0.29307450  0.48584230  0.59715360     0.16750
O502        O  0.23570177  0.48590481  0.63108524    -0.60280
H503        H  0.22453792  0.47376697  0.61367062     0.43750
H504        H  0.35986018  0.42844690  0.67395327     0.43700
C505        C  0.21359418  0.47831099  0.78088768    -0.05360
C506        C  0.20050175  0.46089972  0.80970014    -0.32790
C507        C  0.20418430  0.47371272  0.84100827     0.36460
C508        C  0.22070701  0.00471700  0.84397396    -0.05720
C509        C  0.23427346  0.02195484  0.81523162    -0.32690
C510        C  0.23061058  0.00907667  0.78384509     0.36370
H511        H  0.18753330  0.43715682  0.80790249     0.16740
O512        O  0.19150667  0.45569996  0.86865101    -0.60190
H513        H  0.24692349  0.04584504  0.81707655     0.16750
O514        O  0.24293846  0.02719136  0.75614057    -0.60280
H515        H  0.22383335  0.03966727  0.74854530     0.43750
H516        H  0.21067319  0.44380389  0.87696985     0.43700
C517        C  0.33813083  0.15947359  0.60407731    -0.05360
C518        C  0.33275688  0.13810126  0.57828918    -0.32790
C519        C  0.34980239  0.10897004  0.57610128     0.36460
C520        C  0.37281044  0.10064346  0.59987122    -0.05720
C521        C  0.37660766  0.12066194  0.62695799    -0.32690
C522        C  0.35964202  0.15015722  0.62902986     0.36370
H523        H  0.31647255  0.14474413  0.55878990     0.16740
O524        O  0.34490887  0.08944059  0.54971868    -0.60190
H525        H  0.39405866  0.11440521  0.64550458     0.16750
O526        O  0.36416423  0.16972075  0.65544194    -0.60280
H527        H  0.38719167  0.17956992  0.65190657     0.43750
H528        H  0.32857163  0.07170339  0.55828348     0.43700
C529        C  0.35376035  0.28251868  0.59553922    -0.05360
C530        C  0.34917192  0.30465143  0.56888389    -0.32790
C531        C  0.36855309  0.33375771  0.56381112     0.36460
C532        C  0.39437234  0.34150238  0.58520548    -0.05720
C533        C  0.40008684  0.31875379  0.61128214    -0.32690
C534        C  0.38003311  0.28939705  0.61653247     0.36370
H535        H  0.33026062  0.29942646  0.55145480     0.16740
O536        O  0.36214627  0.35418657  0.53720132    -0.60190
H537        H  0.41945508  0.32409652  0.62817737     0.16750
O538        O  0.38524861  0.26852781  0.64311936    -0.60280
H539        H  0.40636856  0.25775668  0.63720007     0.43750
H540        H  0.34213717  0.36617035  0.54442855     0.43700
C541        C  0.07411625  0.18150008  0.52472910    -0.05360
C542        C  0.07482267  0.16430992  0.55542388    -0.32790
C543        C  0.05390051  0.13658342  0.56319921     0.36460
C544        C  0.03130090  0.12534169  0.54012568    -0.05720
C545        C  0.02961694  0.14313985  0.50972260    -0.32690
C546        C  0.05074691  0.17122657  0.50199295     0.36370
H547        H  0.09154930  0.17264358  0.57383394     0.16740
O548        O  0.05531780  0.12096935  0.59384659    -0.60190
H549        H  0.51279950  0.13464386  0.49147586     0.16750
O550        O  0.04951622  0.18745182  0.97167947    -0.60280
H551        H  0.52830487  0.19916419  0.97273675     0.43750
H552        H  0.07598740  0.10838202  0.59258520     0.43700
C553        C  0.08086287  0.30227563  0.51922555    -0.05360
C554        C  0.09356682  0.33180205  0.50295680    -0.32790
C555        C  0.07626675  0.36106685  0.50576638     0.36460
C556        C  0.04621550  0.36104840  0.52548519    -0.05720
C557        C  0.03348915  0.33137253  0.54120324    -0.32690
C558        C  0.05043374  0.30235324  0.53839832     0.36370
H559        H  0.11703076  0.33221066  0.48832135     0.16740
O560        O  0.08990995  0.38974006  0.49082426    -0.60190
H561        H  0.51044830  0.33072551  0.55658497     0.16750
O562        O  0.03823106  0.27469204  0.55653507    -0.60280
H563        H  0.51762839  0.26741628  0.54589025     0.43750
H564        H  0.08271677  0.38966671  0.46774191     0.43700
C565        C  0.18155748  0.23888948  0.54595882    -0.05360
C566        C  0.20518306  0.21854903  0.53137955    -0.32790
C567        C  0.23596006  0.21407538  0.54531338     0.36460
C568        C  0.24357992  0.22972141  0.57466467    -0.05720
C569        C  0.22012294  0.25030346  0.58912873    -0.32690
C570        C  0.18930779  0.25489204  0.57508885     0.36370
H571        H  0.19970492  0.20603773  0.50900940     0.16740
O572        O  0.25862675  0.19469886  0.52972561    -0.60190
H573        H  0.22556365  0.26255306  0.61165107     0.16750
O574        O  0.16618420  0.27345878  0.59110398    -0.60280
H575        H  0.17410610  0.29671249  0.58634229     0.43750
H576        H  0.27336254  0.21018899  0.51536694     0.43700
C577        C  0.09952310  0.77155984  0.51759143     0.03230
C578        C  0.13280107  0.77092346  0.02689468    -0.12920
C579        C  0.14797037  0.74064349  0.03221469     0.00730
C580        C  0.12953159  0.71118164  0.02776838    -0.11440
C581        C  0.09618708  0.71157186  0.51894316     0.03230
C582        C  0.08206504  0.74178355  0.51216133    -0.10860
H583        H  0.14619739  0.79379164  0.03164785     0.08820
H584        H  0.14031562  0.68778076  0.03372244     0.06350
H585        H  0.05615355  0.74214204  0.50599719     0.06200
C586        C  0.32321195  0.69232928  0.10280986     0.03230
C587        C  0.28977976  0.69527457  0.09463196    -0.12920
C588        C  0.27676879  0.72639733  0.08886620     0.00730
C589        C  0.29702289  0.75469729  0.09301030    -0.11440
C590        C  0.33099341  0.75241292  0.09970587     0.03230
C591        C  0.34374187  0.72104284  0.10481443    -0.10860
H592        H  0.27416674  0.67329979  0.09162584     0.08820
H593        H  0.28689976  0.77868173  0.08846812     0.06350
H594        H  0.37021047  0.71880960  0.10772175     0.06200
C595        C  0.17130792  0.94683221  0.20565080     0.03230
C596        C  0.17627181  0.95738351  0.23782334    -0.12920
C597        C  0.20868404  0.96453412  0.24791489     0.00730
C598        C  0.23620484  0.96019346  0.22576476    -0.11440
C599        C  0.23153461  0.94932450  0.19370455     0.03230
C600        C  0.19910255  0.94224720  0.18404220    -0.10860
H601        H  0.15487807  0.96152979  0.25443249     0.08820
H602        H  0.26123000  0.96621583  0.23313909     0.06350
H603        H  0.19541955  0.93479536  0.15901098     0.06200
C604        C  0.25489980  0.53405018  0.42410547     0.03230
C605        C  0.25369984  0.52508187  0.39088047    -0.12920
C606        C  0.22269731  0.51940090  0.37692830     0.00730
C607        C  0.19311924  0.52340190  0.39630610    -0.11440
C608        C  0.19408460  0.53218326  0.42951901     0.03230
C609        C  0.22498354  0.53887470  0.44263234    -0.10860
H610        H  0.27650724  0.51962254  0.37696963     0.08820
H611        H  0.16923510  0.51743697  0.38619199     0.06350
H612        H  0.22585398  0.54397506  0.46869146     0.06200
C613        C  0.01070295  0.62220341  0.27303539     0.03230
C614        C  0.00314822  0.65544576  0.27601024    -0.12920
C615        C  0.99911143  0.66890922  0.30736581     0.00730
C616        C  0.00300011  0.64868407  0.33575067    -0.11440
C617        C  0.00928613  0.61498938  0.33323158     0.03230
C618        C  0.01408651  0.60218207  0.30169324    -0.10860
H619        H  0.99865230  0.67033448  0.25395427     0.08820
H620        H  0.99808830  0.65842039  0.36001287     0.06350
H621        H  0.01691161  0.57594733  0.29940403     0.06200
C622        C  0.42692771  0.84453225  0.35293443     0.03230
C623        C  0.43709969  0.81181867  0.35176807    -0.12920
C624        C  0.44192643  0.79699201  0.32104010     0.00730
C625        C  0.43717264  0.81557097  0.29168102    -0.11440
C626        C  0.42840799  0.84865585  0.29261319     0.03230
C627        C  0.42149916  0.86213647  0.32327002    -0.10860
H628        H  0.44269288  0.79849802  0.37442014     0.08820
H629        H  0.44241469  0.80490254  0.26794896     0.06350
H630        H  0.41497454  0.88772898  0.32407238     0.06200
O631        O  0.02654747  0.91436886  0.01022295    -0.86380
O632        O  0.43071609  0.96160519  0.16889622    -0.86550
O633        O  0.03237530  0.93084888  0.12613198    -0.88220
O634        O  0.44160825  0.87887993  0.09430858    -0.86970
O635        O  0.39872722  0.89595607  0.06380279    -0.86570
O636        O  0.05404404  0.98395673  0.11801853    -0.87940
O637        O  0.46120930  0.91842804  0.15156036    -0.86410
O638        O  0.01535071  0.89164347  0.06279537    -0.86000
Zr639      Zr  0.48127515  0.92743037  0.09490494     2.84310
O640        O  0.42792065  0.94822555  0.09737767    -1.07980
O641        O  0.01781382  0.96239640  0.06090285    -1.08710
C642        C  0.02860171  0.89130765  0.03306156     1.06720
C643        C  0.44409267  0.93336959  0.17368717     1.06670
C644        C  0.05392142  0.95453288  0.13124633     1.09650
C645        C  0.41312824  0.87404830  0.08102900     1.07430
H646        H  0.49126281  0.97868097  0.13906872     0.32990
O647        O  0.48326298  0.97985285  0.11697304    -1.28930
H648        H  0.46053801  0.90896038  0.03274736     0.32660
O649        O  0.46151808  0.93068890  0.04157109    -1.30610
O650        O  0.39906598  0.55145390  0.11692695    -0.86380
O651        O  0.49708840  0.00531988  0.45909017    -0.87870
O652        O  0.01400146  0.54483388  0.13413057    -0.86450
O653        O  0.35823439  0.95048560  0.08168402    -0.86500
O654        O  0.41261612  0.92312311  0.99192752    -0.86220
O655        O  0.06924808  0.51593214  0.04382352    -0.86020
O656        O  0.48449567  0.58784210  0.03339646    -0.86390
O657        O  0.39436868  0.53695932  0.00211799    -0.85860
O658        O  0.02802161  0.57176443  0.06383883    -0.86920
O659        O  0.37251627  0.98404133  0.01051220    -0.86080
O660        O  0.46036019  0.53504240  0.15598185    -0.86480
O661        O  0.05417044  0.98630011  0.99957258    -0.86200
O662        O  0.46630518  0.93386386  0.47059519    -0.85850
O663        O  0.37262572  0.97759719  0.12801272    -0.86260
O664        O  0.40961854  0.57424355  0.06418635    -0.86550
O665        O  0.46593732  0.54830970  0.47563321    -0.87890
Zr666      Zr  0.42956499  0.00020223  0.11996596     2.83100
Zr667      Zr  0.49717104  0.96640943  0.00779115     2.83500
Zr668      Zr  0.01914886  0.51498292  0.08259769     2.84090
Zr669      Zr  0.40832974  0.95206992  0.04408538     2.83360
Zr670      Zr  0.44562834  0.53939235  0.03257687     2.84220
O671        O  0.44368547  0.98736063  0.00976580    -1.08460
O672        O  0.46550031  0.53584771  0.08591138    -1.07960
C673        C  0.39544521  0.57366702  0.09361566     1.06700
C674        C  0.48376887  0.53351536  0.45389847     1.09310
C675        C  0.48999724  0.54859557  0.15622924     1.06870
C676        C  0.35212879  0.96065662  0.11120294     1.07230
C677        C  0.43660523  0.92088507  0.46947287     1.06810
C678        C  0.07526678  0.00369270  0.01503153     1.06360
C679        C  0.01299409  0.59308734  0.04632335     1.06790
C680        C  0.37182170  0.51386361  0.99852396     1.06300
H681        H  0.01366703  0.53319121  0.01550929     0.32980
O682        O  0.49899520  0.51861306  0.02967679    -1.29560
H683        H  0.38718814  0.51214866  0.06751554     0.33000
O684        O  0.40951567  0.00410410  0.06656440    -1.30940
C685        C  0.44057592  0.91535425  0.20647985    -0.05360
C686        C  0.46492632  0.89257775  0.21373896    -0.32790
C687        C  0.46092176  0.87070408  0.24121120     0.36460
C688        C  0.43193619  0.87091813  0.26240912    -0.05720
C689        C  0.40838150  0.89499013  0.25647492    -0.32690
C690        C  0.41285450  0.91751884  0.22907988     0.36370
H691        H  0.48739063  0.89137915  0.19774777     0.16740
O692        O  0.48641165  0.85039714  0.24806780    -0.60190
H693        H  0.38644340  0.89634297  0.27313003     0.16750
O694        O  0.38966108  0.94082345  0.22437984    -0.60280
H695        H  0.39764624  0.96014167  0.23643446     0.43750
H696        H  0.48621271  0.83367594  0.23086016     0.43700
C697        C  0.42793959  0.86316123  0.38365962    -0.05360
C698        C  0.44573271  0.89370544  0.38186593    -0.32870
C699        C  0.44702341  0.91316618  0.40922830     0.36460
C700        C  0.43080844  0.90214128  0.43970135    -0.05720
C701        C  0.41253648  0.87174721  0.44176168    -0.32690
C702        C  0.41122558  0.85209160  0.41392117     0.36370
H703        H  0.45903453  0.90263394  0.35897123     0.16740
O704        O  0.46373930  0.94342839  0.40574138    -0.60190
H705        H  0.40017213  0.86281975  0.46511190     0.16750
O706        O  0.39295282  0.82271610  0.41625435    -0.60280
H707        H  0.40703920  0.80701329  0.42793681     0.43750
H708        H  0.48782677  0.93873790  0.40531183     0.43700
C709        C  0.49638329  0.57001216  0.18430583    -0.05360
C710        C  0.02862708  0.57369444  0.19613170    -0.32790
C711        C  0.03409519  0.59161204  0.22448567     0.36460
C712        C  0.00727979  0.60652134  0.24101342    -0.05720
C713        C  0.47554488  0.60417878  0.22837433    -0.32690
C714        C  0.46984755  0.58596440  0.20054814     0.36370
H715        H  0.04937688  0.56176891  0.18408459     0.16740
O716        O  0.06548186  0.59383214  0.23625529    -0.60190
H717        H  0.45472103  0.61560337  0.24090154     0.16750
O718        O  0.43820739  0.58426300  0.18924240    -0.60280
H719        H  0.42551653  0.56766847  0.20422714     0.43750
H720        H  0.07592644  0.61455939  0.22584202     0.43700
C721        C  0.48934385  0.55153010  0.42111876    -0.05360
C722        C  0.01822456  0.54733476  0.40061009    -0.32790
C723        C  0.02523178  0.56747335  0.37160331     0.36460
C724        C  0.00337347  0.59239879  0.36305060    -0.05720
C725        C  0.47397103  0.59544261  0.38277162    -0.32690
C726        C  0.46688095  0.57558541  0.41137921     0.36370
H727        H  0.03592542  0.52922324  0.40758797     0.16740
O728        O  0.05421187  0.56374701  0.35278777    -0.60190
H729        H  0.45609556  0.61345478  0.37592804     0.16750
O730        O  0.43741032  0.57963375  0.42935432    -0.60280
H731        H  0.44115740  0.59995398  0.44170402     0.43750
H732        H  0.05016372  0.54351763  0.34040533     0.43700
C733        C  0.48528649  0.70209796  0.31079835    -0.05360
C734        C  0.45585715  0.70939317  0.29522758    -0.32790
C735        C  0.44111760  0.73977793  0.29903794     0.36460
C736        C  0.45566780  0.76361929  0.31883290    -0.05720
C737        C  0.48499542  0.75626996  0.33465423    -0.32690
C738        C  0.49973270  0.72577122  0.33085878     0.36370
H739        H  0.44386318  0.69118293  0.28043531     0.16740
O740        O  0.41174663  0.74551821  0.28434337    -0.60190
H741        H  0.49696537  0.77452744  0.34940121     0.16750
O742        O  0.02900609  0.71985671  0.34564384    -0.60280
H743        H  0.02259732  0.71569229  0.36954286     0.43750
H744        H  0.41782893  0.74839475  0.26024883     0.43700
C745        C  0.16411024  0.52613430  0.45245067    -0.05360
C746        C  0.14718281  0.49536262  0.45214903    -0.32790
C747        C  0.11958372  0.98738029  0.47371621     0.36460
C748        C  0.10808456  0.51025071  0.49668388    -0.05720
C749        C  0.12576280  0.54070914  0.99805613    -0.32690
C750        C  0.15381608  0.54869461  0.47622249     0.36370
H751        H  0.15556416  0.97709277  0.43511888     0.16740
O752        O  0.10408289  0.95677527  0.47229831    -0.60190
H753        H  0.11711226  0.55884773  0.01507601     0.16750
O754        O  0.16994361  0.57905849  0.47716631    -0.60280
H755        H  0.18272065  0.57804254  0.99749347     0.43750
H756        H  0.09135191  0.95770817  0.45193094     0.43700
C757        C  0.34213662  0.52137248  0.47994299    -0.05360
C758        C  0.34437547  0.54278351  0.45156229    -0.32790
C759        C  0.31634677  0.54718076  0.43257347     0.36460
C760        C  0.28567203  0.53050261  0.44238371    -0.05720
C761        C  0.28365411  0.50952938  0.47092051    -0.32690
C762        C  0.31116219  0.50521216  0.98976556     0.36370
H763        H  0.36795653  0.55542070  0.44367791     0.16740
O764        O  0.31890671  0.56832788  0.40513644    -0.60190
H765        H  0.26041348  0.49616457  0.47873135     0.16750
O766        O  0.30738171  0.98502415  0.01791395    -0.60280
H767        H  0.30283381  0.00000080  0.03623082     0.43750
H768        H  0.32974634  0.55573696  0.38733169     0.43700
C769        C  0.13763074  0.94578755  0.19226687    -0.05360
C770        C  0.12617291  0.91819270  0.17544498    -0.32790
C771        C  0.09755833  0.91960908  0.15692067     0.36460
C772        C  0.08039753  0.94908412  0.15474411    -0.05720
C773        C  0.09081864  0.97581384  0.17327304    -0.32690
C774        C  0.11902576  0.97436087  0.19186667     0.36370
H775        H  0.14029089  0.89603257  0.17551872     0.16740
O776        O  0.08779718  0.89281815  0.13967121    -0.60190
H777        H  0.07777768  0.99864817  0.17226945     0.16750
O778        O  0.13007169  0.00218745  0.20682235    -0.60280
H779        H  0.11574662  0.50305116  0.22752559     0.43750
H780        H  0.09996538  0.89580701  0.11765668     0.43700
C781        C  0.26047401  0.94816488  0.16950012    -0.05360
C782        C  0.28789115  0.92968135  0.17750687    -0.32790
C783        C  0.31707987  0.93143830  0.15685192     0.36460
C784        C  0.31933876  0.95229338  0.12804634    -0.05720
C785        C  0.29140910  0.96935674  0.11900185    -0.32690
C786        C  0.26191461  0.96717099  0.13937179     0.36370
H787        H  0.28688990  0.91444553  0.20021940     0.16740
O788        O  0.34337673  0.91280736  0.16510260    -0.60190
H789        H  0.29306876  0.98583146  0.09715825     0.16750
O790        O  0.23569569  0.98589749  0.13108920    -0.60280
H791        H  0.22453093  0.97375745  0.11367663     0.43750
H792        H  0.35985207  0.92844196  0.17396525     0.43700
C793        C  0.21358860  0.97831910  0.28089073    -0.05360
C794        C  0.20049482  0.96091312  0.30970579    -0.32790
C795        C  0.20418172  0.97372920  0.34101200     0.36460
C796        C  0.22070305  0.50474321  0.34397360    -0.05720
C797        C  0.23427234  0.52198136  0.31523273    -0.32690
C798        C  0.23060306  0.50910907  0.28384470     0.36370
H799        H  0.18752243  0.93717167  0.30791177     0.16740
O800        O  0.19150222  0.95572165  0.36865730    -0.60190
H801        H  0.24692902  0.54586796  0.31708000     0.16750
O802        O  0.24293371  0.52722506  0.25614203    -0.60280
H803        H  0.22383227  0.53970940  0.24855146     0.43750
H804        H  0.21066688  0.94382326  0.37697702     0.43700
C805        C  0.33812479  0.65945860  0.10407605    -0.05360
C806        C  0.33275552  0.63808987  0.07828397    -0.32790
C807        C  0.34980202  0.60895943  0.07609486     0.36460
C808        C  0.37280636  0.60063038  0.09986760    -0.05720
C809        C  0.37659954  0.62064568  0.12695736    -0.32690
C810        C  0.35963302  0.65014016  0.12903037     0.36370
H811        H  0.31647360  0.64473478  0.05878327     0.16740
O812        O  0.34491247  0.58943283  0.04970922    -0.60190
H813        H  0.39404761  0.61438684  0.14550601     0.16750
O814        O  0.36415109  0.66970066  0.15544550    -0.60280
H815        H  0.38717797  0.67955186  0.15191314     0.43750
H816        H  0.32857527  0.57169399  0.05827014     0.43700
C817        C  0.35374489  0.78250400  0.09555274    -0.05360
C818        C  0.34915212  0.80464006  0.06890136    -0.32790
C819        C  0.36853268  0.83374649  0.06382907     0.36460
C820        C  0.39435688  0.84148778  0.08521906    -0.05720
C821        C  0.40007483  0.81873664  0.11129243    -0.32690
C822        C  0.38002097  0.78937996  0.11654289     0.36370
H823        H  0.33023830  0.79941740  0.05147427     0.16740
O824        O  0.36212036  0.85417849  0.03722347    -0.60190
H825        H  0.41944653  0.82407686  0.12818462     0.16750
O826        O  0.38524022  0.76850804  0.14312665    -0.60280
H827        H  0.40636064  0.75773910  0.13720417     0.43750
H828        H  0.34211414  0.86616323  0.04445742     0.43700
C829        C  0.07411630  0.68147041  0.02472871    -0.05360
C830        C  0.07483398  0.66427319  0.05541865    -0.32790
C831        C  0.05391542  0.63654428  0.06319436     0.36460
C832        C  0.03130696  0.62530756  0.04012664    -0.05720
C833        C  0.02961373  0.64311109  0.00972781    -0.32690
C834        C  0.05074084  0.67119962  0.00199739     0.36370
H835        H  0.09156606  0.67260363  0.07382533     0.16740
O836        O  0.05534416  0.62092408  0.09383733    -0.60190
H837        H  0.51278998  0.63461880  0.99148499     0.16750
O838        O  0.04953210  0.68746994  0.47168230    -0.60280
H839        H  0.52832159  0.69918384  0.47273338     0.43750
H840        H  0.07601268  0.60833564  0.09256458     0.43700
C841        C  0.08085067  0.80224929  0.01923093    -0.05360
C842        C  0.09355251  0.83177550  0.00296017    -0.32790
C843        C  0.07625231  0.86104010  0.00577064     0.36460
C844        C  0.04620292  0.86102184  0.02549241    -0.05720
C845        C  0.03347873  0.83134624  0.04121291    -0.32690
C846        C  0.05042345  0.80232693  0.03840676     0.36370
H847        H  0.11701509  0.83218412  0.98832244     0.16740
O848        O  0.08989386  0.88971317  0.99082654    -0.60190
H849        H  0.51043949  0.83069942  0.05659711     0.16750
O850        O  0.03822298  0.77466587  0.05654503    -0.60280
H851        H  0.51761964  0.76738909  0.04590206     0.43750
H852        H  0.08269714  0.88963974  0.96774545     0.43700
C853        C  0.18155084  0.73886998  0.04595682    -0.05360
C854        C  0.20517999  0.71853469  0.03137546    -0.32790
C855        C  0.23595596  0.71406135  0.04531141     0.36460
C856        C  0.24357086  0.72970235  0.07466686    -0.05720
C857        C  0.22011038  0.75027943  0.08913283    -0.32690
C858        C  0.18929637  0.75486774  0.07509086     0.36370
H859        H  0.19970522  0.70602688  0.00900240     0.16740
O860        O  0.25862633  0.69468990  0.02972196    -0.60190
H861        H  0.22554740  0.76252516  0.11165830     0.16750
O862        O  0.16616905  0.77342899  0.09110773    -0.60280
H863        H  0.17408778  0.79668411  0.08634950     0.43750
H864        H  0.27336212  0.71018378  0.01536749     0.43700
C865        C  0.09951202  0.77153829  0.01759136     0.03230
C866        C  0.13281150  0.77094418  0.52689685    -0.12920
C867        C  0.14797827  0.74066376  0.53222329     0.00730
C868        C  0.12953658  0.71120193  0.52778293    -0.11440
C869        C  0.09618092  0.71155059  0.01893277     0.03230
C870        C  0.08205536  0.74176204  0.01215832    -0.10860
H871        H  0.14620960  0.79381259  0.53164568     0.08820
H872        H  0.14031810  0.68780102  0.53374212     0.06350
H873        H  0.05614271  0.74211981  0.00599802     0.06200
C874        C  0.32322644  0.69235285  0.60280700     0.03230
C875        C  0.28979467  0.69530159  0.59462897    -0.12920
C876        C  0.27678786  0.72642550  0.58885808     0.00730
C877        C  0.29704633  0.75472398  0.59299742    -0.11440
C878        C  0.33101600  0.75243600  0.59969624     0.03230
C879        C  0.34375990  0.72106447  0.60480908    -0.10860
H880        H  0.27417845  0.67332807  0.59162694     0.08820
H881        H  0.28692702  0.77870946  0.58845096     0.06350
H882        H  0.37022790  0.71882848  0.60771807     0.06200
C883        C  0.17133962  0.94679518  0.70564818     0.03230
C884        C  0.17629607  0.95735174  0.73781962    -0.12920
C885        C  0.20870656  0.96449061  0.74792124     0.00730
C886        C  0.23623168  0.96014196  0.72577840    -0.11440
C887        C  0.23156654  0.94927267  0.69371687     0.03230
C888        C  0.19913625  0.94219665  0.68404873    -0.10860
H889        H  0.15489807  0.96151823  0.75441606     0.08820
H890        H  0.26125535  0.96616391  0.73315709     0.06350
H891        H  0.19545559  0.93474638  0.65901644     0.06200
C892        C  0.25489530  0.53402971  0.92410894     0.03230
C893        C  0.25369783  0.52506458  0.89088290    -0.12920
C894        C  0.22269654  0.51938255  0.87692893     0.00730
C895        C  0.19311700  0.52337900  0.89630597    -0.11440
C896        C  0.19407986  0.53215737  0.92951996     0.03230
C897        C  0.22497768  0.53885000  0.94263516    -0.10860
H898        H  0.27650640  0.51960850  0.87697227     0.08820
H899        H  0.16923395  0.51741358  0.88618987     0.06350
H900        H  0.22584657  0.54394838  0.96869483     0.06200
C901        C  0.01070686  0.62220109  0.77304830     0.03230
C902        C  0.00315122  0.65544282  0.77602429    -0.12920
C903        C  0.99911050  0.66890453  0.80738023     0.00730
C904        C  0.00299785  0.64867801  0.83576483    -0.11440
C905        C  0.00928727  0.61498379  0.83324428     0.03230
C906        C  0.01409021  0.60217860  0.80170524    -0.10860
H907        H  0.99865641  0.67033220  0.75396842     0.08820
H908        H  0.99808310  0.65841264  0.86002730     0.06350
H909        H  0.01691652  0.57594420  0.79941457     0.06200
C910        C  0.42691792  0.84453166  0.85292292     0.03230
C911        C  0.43709281  0.81181896  0.85175895    -0.12920
C912        C  0.44192718  0.79699208  0.82103215     0.00730
C913        C  0.43717884  0.81557051  0.79167107    -0.11440
C914        C  0.42841116  0.84865500  0.79260065     0.03230
C915        C  0.42149425  0.86213497  0.82325656    -0.10860
H916        H  0.44268184  0.79849869  0.87441256     0.08820
H917        H  0.44242597  0.80490154  0.76794024     0.06350
H918        H  0.41496601  0.88772648  0.82405735     0.06200
O919        O  0.02656860  0.91439822  0.51021564    -0.86380
O920        O  0.43073305  0.96161778  0.66889216    -0.86550
O921        O  0.03240983  0.93088570  0.62612133    -0.88220
O922        O  0.44163982  0.87890097  0.59430519    -0.86970
O923        O  0.39875603  0.89597368  0.56380119    -0.86570
O924        O  0.05407350  0.98399281  0.61799400    -0.87940
O925        O  0.46123698  0.91844781  0.65155680    -0.86410
O926        O  0.01537766  0.89167294  0.56278899    -0.86000
Zr927      Zr  0.48130255  0.92745673  0.59490228     2.84310
O928        O  0.42794484  0.94824493  0.59737464    -1.07980
O929        O  0.01783310  0.96242869  0.56089826    -1.08710
C930        C  0.02862501  0.89133695  0.53305380     1.06720
C931        C  0.44411357  0.93338387  0.67368268     1.06670
C932        C  0.05395890  0.95457101  0.63122504     1.09650
C933        C  0.41315983  0.87406679  0.58102564     1.07430
H934        H  0.49128557  0.97870812  0.63906551     0.32990
O935        O  0.48328326  0.97987941  0.61697076    -1.28930
H936        H  0.46056385  0.90898448  0.53274594     0.32660
O937        O  0.46154158  0.93071308  0.54156957    -1.30610
O938        O  0.39906850  0.55146859  0.61692721    -0.86380
O939        O  0.49707926  0.00529589  0.95909392    -0.87870
O940        O  0.01400264  0.54484974  0.63413407    -0.86450
O941        O  0.35825819  0.95049073  0.58168592    -0.86500
O942        O  0.41263970  0.92313787  0.49192776    -0.86220
O943        O  0.06925300  0.51596054  0.54382493    -0.86020
O944        O  0.48449691  0.58786467  0.53339808    -0.86390
O945        O  0.39437259  0.53697841  0.50211569    -0.85860
O946        O  0.02802140  0.57178904  0.56384375    -0.86920
O947        O  0.37251721  0.98405004  0.51051963    -0.86080
O948        O  0.46036178  0.53505308  0.65598447    -0.86480
O949        O  0.05418524  0.98633412  0.49956943    -0.86200
O950        O  0.46628331  0.93384333  0.97059629    -0.85850
O951        O  0.37264586  0.97760552  0.62801385    -0.86260
O952        O  0.40962002  0.57426057  0.56418726    -0.86550
O953        O  0.46593395  0.54828807  0.97563544    -0.87890
Zr954      Zr  0.42958105  0.00022018  0.61996484     2.83100
Zr955      Zr  0.49718823  0.96643695  0.50778776     2.83500
Zr956      Zr  0.01915229  0.51500541  0.58259759     2.84090
Zr957      Zr  0.40834988  0.95208767  0.54408331     2.83360
Zr958      Zr  0.44563187  0.53941282  0.53257544     2.84220
O959        O  0.44369991  0.98738210  0.50976265    -1.08460
O960        O  0.46550199  0.53586610  0.58591095    -1.07960
C961        C  0.39544725  0.57368276  0.59361692     1.06700
C962        C  0.48376527  0.53349368  0.95390080     1.09310
C963        C  0.48999831  0.54860712  0.65623370     1.06870
C964        C  0.35215239  0.96065946  0.61120549     1.07230
C965        C  0.43658144  0.92086944  0.96947249     1.06810
C966        C  0.07527919  0.00373067  0.51502722     1.06360
C967        C  0.01299382  0.59311147  0.54632763     1.06790
C968        C  0.37182711  0.51388176  0.49851945     1.06300
H969        H  0.01367147  0.53321648  0.51550925     0.32980
O970        O  0.49900025  0.51863691  0.52967589    -1.29560
H971        H  0.38719272  0.51216425  0.56751226     0.33000
O972        O  0.40952970  0.00412097  0.56656382    -1.30940
C973        C  0.44059130  0.91536263  0.70647281    -0.05360
C974        C  0.46493886  0.89258278  0.71373173    -0.32790
C975        C  0.46092977  0.87070514  0.74120093     0.36460
C976        C  0.43194230  0.87091816  0.76239644    -0.05720
C977        C  0.40838911  0.89499169  0.75646127    -0.32690
C978        C  0.41286661  0.91752429  0.72906952     0.36370
H979        H  0.48740500  0.89138495  0.69774306     0.16740
O980        O  0.48641769  0.85039580  0.74805749    -0.60190
H981        H  0.38644882  0.89634336  0.77311364     0.16750
O982        O  0.38967443  0.94083023  0.72436957    -0.60280
H983        H  0.39765790  0.96014616  0.73642855     0.43750
H984        H  0.48621930  0.83367673  0.73084773     0.43700
C985        C  0.42792016  0.86316006  0.88364951    -0.05360
C986        C  0.44570335  0.89370975  0.88185922    -0.32870
C987        C  0.44699043  0.91316627  0.90922495     0.36460
C988        C  0.43078210  0.90213177  0.93969787    -0.05720
C989        C  0.41251813  0.87173344  0.94175473    -0.32690
C990        C  0.41121070  0.85208195  0.91391089     0.36370
H991        H  0.45900244  0.90264504  0.85896547     0.16740
O992        O  0.46369813  0.94343284  0.90574246    -0.60190
H993        H  0.40015880  0.86279902  0.96510498     0.16750
O994        O  0.39294660  0.82270139  0.91624115    -0.60280
H995        H  0.40703508  0.80700331  0.92792736     0.43750
H996        H  0.48778726  0.93874875  0.90530871     0.43700
C997        C  0.49638403  0.57001899  0.68431394    -0.05360
C998        C  0.02862910  0.57370380  0.69613648    -0.32790
C999        C  0.03409803  0.59161778  0.72449257     0.36460
C1000       C  0.00728203  0.60652062  0.74102597    -0.05720
C1001       C  0.47554539  0.60417496  0.72839106    -0.32690
C1002       C  0.46984735  0.58596437  0.70056261     0.36370
H1003       H  0.04937963  0.56178341  0.68408464     0.16740
O1004       O  0.06548623  0.59384103  0.73625831    -0.60190
H1005       H  0.45472114  0.61559481  0.74092275     0.16750
O1006       O  0.43820562  0.58426042  0.68926078    -0.60280
H1007       H  0.42551905  0.56766150  0.70424395     0.43750
H1008       H  0.07592655  0.61457079  0.72584645     0.43700
C1009       C  0.48934150  0.55151094  0.92112227    -0.05360
C1010       C  0.01822464  0.54732064  0.90061553    -0.32790
C1011       C  0.02523349  0.56746423  0.87161218     0.36460
C1012       C  0.00337461  0.59239006  0.86306130    -0.05720
C1013       C  0.47397010  0.59542903  0.88278032    -0.32690
C1014       C  0.46687809  0.57556648  0.91138403     0.36370
H1015       H  0.03592607  0.52920934  0.90759257     0.16740
O1016       O  0.05421552  0.56374214  0.85279830    -0.60190
H1017       H  0.45609411  0.61344109  0.87593784     0.16750
O1018       O  0.43740505  0.57960998  0.92935684    -0.60280
H1019       H  0.44114840  0.59992914  0.94170919     0.43750
H1020       H  0.05017026  0.54351395  0.84041319     0.43700
C1021       C  0.48528382  0.70209307  0.81081102    -0.05360
C1022       C  0.45585897  0.70938905  0.79523230    -0.32790
C1023       C  0.44112113  0.73977574  0.79903497     0.36460
C1024       C  0.45566824  0.76361852  0.81883025    -0.05720
C1025       C  0.48499072  0.75626818  0.83466042    -0.32690
C1026       C  0.49972645  0.72576749  0.83087251     0.36370
H1027       H  0.44386755  0.69117826  0.78043878     0.16740
O1028       O  0.41175457  0.74551658  0.78433242    -0.60190
H1029       H  0.49695802  0.77452631  0.84940858     0.16750
O1030       O  0.02899553  0.71985254  0.84566536    -0.60280
H1031       H  0.02258065  0.71568914  0.86956324     0.43750
H1032       H  0.41784302  0.74839143  0.76023895     0.43700
C1033       C  0.16410417  0.52610702  0.95244983    -0.05360
C1034       C  0.14717331  0.49533747  0.95214212    -0.32790
C1035       C  0.11956675  0.98734887  0.97371054     0.36460
C1036       C  0.10807760  0.51022078  0.99668138    -0.05720
C1037       C  0.12576678  0.54074140  0.49805325    -0.32690
C1038       C  0.15381227  0.54866370  0.97622624     0.36370
H1039       H  0.15554381  0.97706772  0.93510782     0.16740
O1040       O  0.10406209  0.95674664  0.97228415    -0.60190
H1041       H  0.11711387  0.55888249  0.51506918     0.16750
O1042       O  0.16994231  0.57902583  0.97717558    -0.60280
H1043       H  0.18272554  0.57807856  0.49748194     0.43750
H1044       H  0.09132950  0.95768782  0.95191808     0.43700
C1045       C  0.34213126  0.52135452  0.97994778    -0.05360
C1046       C  0.34437010  0.54276563  0.95156720    -0.32790
C1047       C  0.31634156  0.54716245  0.93257816     0.36460
C1048       C  0.28566710  0.53048353  0.94238799    -0.05720
C1049       C  0.28364923  0.50951025  0.97092472    -0.32690
C1050       C  0.31116741  0.50523048  0.48976090     0.36370
H1051       H  0.36795105  0.55540315  0.94368302     0.16740
O1052       O  0.31890135  0.56830978  0.90514128    -0.60190
H1053       H  0.26040899  0.49614457  0.97873515     0.16750
O1054       O  0.30725330  0.98528987  0.51814174    -0.60280
H1055       H  0.29501752  0.99833047  0.53449569     0.43750
H1056       H  0.32974380  0.55572012  0.88733717     0.43700
C1057       C  0.13767313  0.94579177  0.69224615    -0.05360
C1058       C  0.12615275  0.91817815  0.67549170    -0.32790
C1059       C  0.09754073  0.91961329  0.65696394     0.36460
C1060       C  0.08045012  0.94912726  0.65471117    -0.05720
C1061       C  0.09094404  0.97588620  0.67316564    -0.32690
C1062       C  0.11914662  0.97441412  0.69176238     0.36370
H1063       H  0.14021616  0.89598272  0.67562622     0.16740
O1064       O  0.08770899  0.89279298  0.63979275    -0.60190
H1065       H  0.07796090  0.99875243  0.67210752     0.16750
O1066       O  0.13026510  0.00225725  0.70664423    -0.60280
H1067       H  0.11576556  0.50306375  0.72751685     0.43750
H1068       H  0.09987699  0.89569653  0.61777192     0.43700
C1069       C  0.26050644  0.94812898  0.66951062    -0.05360
C1070       C  0.28792860  0.92964835  0.67750720    -0.32790
C1071       C  0.31711509  0.93141901  0.65684879     0.36460
C1072       C  0.31936645  0.95228582  0.62805118    -0.05720
C1073       C  0.29143397  0.96934912  0.61901521    -0.32690
C1074       C  0.26194100  0.96714900  0.63938979     0.36370
H1075       H  0.28693249  0.91440328  0.70021355     0.16740
O1076       O  0.34341636  0.91278794  0.66508671    -0.60190
H1077       H  0.29309530  0.98583033  0.59717054     0.16750
O1078       O  0.23571688  0.98587387  0.63111980    -0.60280
H1079       H  0.22455291  0.97374031  0.61370243     0.43750
H1080       H  0.35989792  0.92842215  0.67394040     0.43700
C1081       C  0.21360386  0.97828138  0.78089563    -0.05360
C1082       C  0.20051121  0.96087611  0.80971146    -0.32790
C1083       C  0.20418983  0.97369808  0.84101645     0.36460
C1084       C  0.22070558  0.50472840  0.84397250    -0.05720
C1085       C  0.23427337  0.52197139  0.81523379    -0.32690
C1086       C  0.23060650  0.50910233  0.78384404     0.36370
H1087       H  0.18754618  0.93713072  0.80791894     0.16740
O1088       O  0.19151313  0.95569051  0.86866282    -0.60190
H1089       H  0.24692675  0.54585915  0.81708412     0.16750
O1090       O  0.24293529  0.52722261  0.75614339    -0.60280
H1091       H  0.22383241  0.53970578  0.74855445     0.43750
H1092       H  0.21068129  0.94380075  0.87698687     0.43700
C1093       C  0.33813479  0.65947975  0.60407615    -0.05360
C1094       C  0.33276005  0.63810833  0.57828737    -0.32790
C1095       C  0.34980291  0.60897554  0.57609976     0.36460
C1096       C  0.37280925  0.60064666  0.59987054    -0.05720
C1097       C  0.37660743  0.62066445  0.62695771    -0.32690
C1098       C  0.35964431  0.65016119  0.62902937     0.36370
H1099       H  0.31647704  0.64475294  0.55878753     0.16740
O1100       O  0.34490866  0.58944676  0.54971668    -0.60190
H1101       H  0.39405722  0.61440588  0.64550486     0.16750
O1102       O  0.36416720  0.66972388  0.65544197    -0.60280
H1103       H  0.38719551  0.67957110  0.65190768     0.43750
H1104       H  0.32857049  0.57171008  0.55828075     0.43700
C1105       C  0.35377194  0.78252427  0.59554360    -0.05360
C1106       C  0.34918716  0.80465791  0.56888832    -0.32790
C1107       C  0.36857149  0.83376221  0.56381658     0.36460
C1108       C  0.39439036  0.84150472  0.58521254    -0.05720
C1109       C  0.40010125  0.81875519  0.61128947    -0.32690
C1110       C  0.38004445  0.78939989  0.61653832     0.36370
H1111       H  0.33027651  0.79943502  0.55145798     0.16740
O1112       O  0.36216790  0.85419143  0.53720594    -0.60190
H1113       H  0.41946889  0.82409610  0.62818588     0.16750
O1114       O  0.38525692  0.76852934  0.64312506    -0.60280
H1115       H  0.40637626  0.75775677  0.63720662     0.43750
H1116       H  0.34215878  0.86617615  0.54443132     0.43700
C1117       C  0.07411940  0.68149345  0.52473866    -0.05360
C1118       C  0.07482875  0.66429984  0.55543139    -0.32790
C1119       C  0.05390751  0.63657218  0.56320556     0.36460
C1120       C  0.03130538  0.62533284  0.54013315    -0.05720
C1121       C  0.02961972  0.64313347  0.50973168    -0.32690
C1122       C  0.05074902  0.67122090  0.50200297     0.36370
H1123       H  0.09155661  0.67263192  0.57384103     0.16740
O1124       O  0.05532770  0.62095524  0.59385116    -0.60190
H1125       H  0.51280084  0.63463922  0.49148542     0.16750
O1126       O  0.04951631  0.68745188  0.97167926    -0.60280
H1127       H  0.52830501  0.69916428  0.97273652     0.43750
H1128       H  0.07599655  0.60836695  0.59258595     0.43700
C1129       C  0.08086359  0.80227258  0.51922546    -0.05360
C1130       C  0.09357043  0.83179782  0.50295596    -0.32790
C1131       C  0.07627332  0.86106463  0.50576434     0.36460
C1132       C  0.04622207  0.86104941  0.52548265    -0.05720
C1133       C  0.03349193  0.83137461  0.54120010    -0.32690
C1134       C  0.05043357  0.80235337  0.53839645     0.36370
H1135       H  0.11703490  0.83220416  0.48832160     0.16740
O1136       O  0.08991984  0.88973668  0.49082244    -0.60190
H1137       H  0.51045078  0.83073025  0.55658123     0.16750
O1138       O  0.03822766  0.77469379  0.55653385    -0.60280
H1139       H  0.51762481  0.76741956  0.54588845     0.43750
H1140       H  0.08272511  0.88966538  0.46774058     0.43700
C1141       C  0.18156099  0.73889128  0.54596163    -0.05360
C1142       C  0.20518664  0.71855112  0.53138206    -0.32790
C1143       C  0.23596588  0.71408147  0.54531286     0.36460
C1144       C  0.24358815  0.72973128  0.57466155    -0.05720
C1145       C  0.22013128  0.75031351  0.58912550    -0.32690
C1146       C  0.18931385  0.75489808  0.57508860     0.36370
H1147       H  0.19970676  0.70603682  0.50901408     0.16740
O1148       O  0.25863204  0.69470445  0.52972502    -0.60190
H1149       H  0.22557340  0.76256560  0.61164607     0.16750
O1150       O  0.16619053  0.77346479  0.59110414    -0.60280
H1151       H  0.17411033  0.79671863  0.58633924     0.43750
H1152       H  0.27336590  0.71019388  0.51536362     0.43700
C1153       C  0.59952301  0.27156394  0.51758683     0.03230
C1154       C  0.63280092  0.27092339  0.02689487    -0.12920
C1155       C  0.64797027  0.24064343  0.03221486     0.00730
C1156       C  0.62953150  0.21118156  0.02776857    -0.11440
C1157       C  0.59618564  0.21157664  0.51893230     0.03230
C1158       C  0.58206484  0.24178905  0.51215224    -0.10860
H1159       H  0.64619724  0.29379159  0.03164800     0.08820
H1160       H  0.64031557  0.18778069  0.03372260     0.06350
H1161       H  0.55615346  0.24214886  0.50598775     0.06200
C1162       C  0.82321207  0.19232925  0.10280977     0.03230
C1163       C  0.78977987  0.19527453  0.09463186    -0.12920
C1164       C  0.77676886  0.22639728  0.08886617     0.00730
C1165       C  0.79702293  0.25469724  0.09301035    -0.11440
C1166       C  0.83099347  0.25241291  0.09970590     0.03230
C1167       C  0.84374196  0.22104282  0.10481439    -0.10860
H1168       H  0.77416688  0.17329974  0.09162571     0.08820
H1169       H  0.78689975  0.27868168  0.08846827     0.06350
H1170       H  0.87021057  0.21880960  0.10772170     0.06200
C1171       C  0.67130788  0.44683227  0.20565112     0.03230
C1172       C  0.67627128  0.45738334  0.23782379    -0.12920
C1173       C  0.70868326  0.46453422  0.24791583     0.00730
C1174       C  0.73620442  0.46019407  0.22576588    -0.11440
C1175       C  0.73153467  0.44932520  0.19370547     0.03230
C1176       C  0.69910277  0.44224759  0.18404278    -0.10860
H1177       H  0.65487726  0.46152931  0.25443271     0.08820
H1178       H  0.76122942  0.46621669  0.23314051     0.06350
H1179       H  0.69542009  0.43479582  0.15901148     0.06200
C1180       C  0.75490782  0.03404788  0.42410022     0.03230
C1181       C  0.75370688  0.02507713  0.39087844    -0.12920
C1182       C  0.72270463  0.01940026  0.37692603     0.00730
C1183       C  0.69312688  0.02340510  0.39630270    -0.11440
C1184       C  0.69409241  0.03218565  0.42951572     0.03230
C1185       C  0.72499147  0.03887313  0.44263002    -0.10860
H1186       H  0.77651417  0.01961527  0.37696890     0.08820
H1187       H  0.66924251  0.01744298  0.38618781     0.06350
H1188       H  0.72586163  0.04397235  0.46868987     0.06200
C1189       C  0.51070425  0.12220401  0.27303375     0.03230
C1190       C  0.50314954  0.15544632  0.27600870    -0.12920
C1191       C  0.49911254  0.16890955  0.30736434     0.00730
C1192       C  0.50300107  0.14868430  0.33574913    -0.11440
C1193       C  0.50928721  0.11498968  0.33322982     0.03230
C1194       C  0.51408778  0.10218256  0.30169147    -0.10860
H1195       H  0.49865360  0.17033511  0.25395278     0.08820
H1196       H  0.49808900  0.15842043  0.36001138     0.06350
H1197       H  0.51691288  0.07594783  0.29940214     0.06200
C1198       C  0.92692604  0.34453124  0.35293232     0.03230
C1199       C  0.93709857  0.31181788  0.35176625    -0.12920
C1200       C  0.94192592  0.29699127  0.32103835     0.00730
C1201       C  0.93717227  0.31557006  0.29167915    -0.11440
C1202       C  0.92840703  0.34865475  0.29261122     0.03230
C1203       C  0.92149755  0.36213527  0.32326790    -0.10860
H1204       H  0.94269161  0.29849739  0.37441847     0.08820
H1205       H  0.94241486  0.30490171  0.26794715     0.06350
H1206       H  0.91497258  0.38772769  0.32407021     0.06200
O1207       O  0.52654734  0.41436895  0.01022295    -0.86380
O1208       O  0.93071622  0.46160557  0.16889619    -0.86550
O1209       O  0.53237551  0.43084899  0.12613192    -0.88220
O1210       O  0.94160840  0.37888002  0.09430875    -0.86970
O1211       O  0.89872728  0.39595618  0.06380314    -0.86570
O1212       O  0.55404398  0.48395696  0.11801875    -0.87940
O1213       O  0.96120944  0.41842844  0.15156025    -0.86410
O1214       O  0.51535075  0.39164357  0.06279539    -0.86000
Zr1215     Zr  0.98127531  0.42743055  0.09490502     2.84310
O1216       O  0.92792082  0.44822573  0.09737811    -1.07980
O1217       O  0.51781378  0.46239677  0.06090310    -1.08710
C1218       C  0.52860163  0.39130771  0.03306153     1.06720
C1219       C  0.94409283  0.43336999  0.17368703     1.06670
C1220       C  0.55392152  0.45453304  0.13124635     1.09650
C1221       C  0.91312833  0.37404839  0.08102926     1.07430
H1222       H  0.99126280  0.47868115  0.13906890     0.32990
O1223       O  0.98326296  0.47985303  0.11697323    -1.28930
H1224       H  0.96053809  0.40896044  0.03274754     0.32660
O1225       O  0.96151819  0.43068895  0.04157128    -1.30610
O1226       O  0.89906597  0.05145364  0.11692697    -0.86380
O1227       O  0.99708432  0.50531866  0.45909190    -0.87870
O1228       O  0.51400147  0.04483360  0.13412999    -0.86450
O1229       O  0.85823443  0.45048579  0.08168445    -0.86500
O1230       O  0.91261602  0.42312339  0.99192810    -0.86220
O1231       O  0.56924828  0.01593253  0.04382277    -0.86020
O1232       O  0.98449558  0.08784188  0.03339646    -0.86390
O1233       O  0.89436827  0.03695938  0.00211788    -0.85860
O1234       O  0.52802159  0.07176416  0.06383873    -0.86920
O1235       O  0.87251705  0.48404114  0.01051239    -0.86080
O1236       O  0.96036027  0.03504216  0.15598151    -0.86480
O1237       O  0.55417035  0.48629983  0.99957320    -0.86200
O1238       O  0.96629736  0.43386337  0.47059374    -0.85850
O1239       O  0.87262574  0.47759764  0.12801299    -0.86260
O1240       O  0.90961854  0.07424337  0.06418641    -0.86550
O1241       O  0.96593856  0.04830930  0.47563078    -0.87890
Zr1242     Zr  0.92956505  0.50020257  0.11996610     2.83100
Zr1243     Zr  0.99717102  0.46640964  0.00779142     2.83500
Zr1244     Zr  0.51914899  0.01498259  0.08259728     2.84090
Zr1245     Zr  0.90832994  0.45207001  0.04408593     2.83360
Zr1246     Zr  0.94562815  0.03939214  0.03257672     2.84220
O1247       O  0.94368549  0.48736075  0.00976618    -1.08460
O1248       O  0.96550033  0.03584727  0.08591114    -1.07960
C1249       C  0.89544523  0.07366682  0.09361573     1.06700
C1250       C  0.98377088  0.03351546  0.45389624     1.09310
C1251       C  0.98999734  0.04859534  0.15622870     1.06870
C1252       C  0.85212880  0.46065696  0.11120332     1.07230
C1253       C  0.93659697  0.42088622  0.46946931     1.06810
C1254       C  0.57526663  0.50369218  0.01503240     1.06360
C1255       C  0.51299403  0.09308711  0.04632334     1.06790
C1256       C  0.87182104  0.01386388  0.99852378     1.06300
H1257       H  0.51366686  0.03319102  0.01550904     0.32980
O1258       O  0.99899507  0.01861284  0.02967653    -1.29560
H1259       H  0.88718803  0.01214846  0.06751541     0.33000
O1260       O  0.90951580  0.50410433  0.06656458    -1.30940
C1261       C  0.94057602  0.41535456  0.20647949    -0.05360
C1262       C  0.96492656  0.39257823  0.21373858    -0.32790
C1263       C  0.96092158  0.37070389  0.24121021     0.36460
C1264       C  0.93193548  0.37091720  0.26240745    -0.05720
C1265       C  0.90838066  0.39498909  0.25647333    -0.32690
C1266       C  0.91285411  0.41751849  0.22907898     0.36370
H1267       H  0.98739122  0.39138020  0.19774778     0.16740
O1268       O  0.98641150  0.35039704  0.24806693    -0.60190
H1269       H  0.88644219  0.39634138  0.27312803     0.16750
O1270       O  0.88966067  0.44082309  0.22437904    -0.60280
H1271       H  0.89764557  0.46014110  0.23643412     0.43750
H1272       H  0.98621300  0.33367614  0.23085898     0.43700
C1273       C  0.92793704  0.36316043  0.38365724    -0.05360
C1274       C  0.94573035  0.39370454  0.38186373    -0.32870
C1275       C  0.94701910  0.41316611  0.40922559     0.36460
C1276       C  0.93080182  0.40214215  0.43969780    -0.05720
C1277       C  0.91253000  0.37174801  0.44175797    -0.32690
C1278       C  0.91122116  0.35209155  0.41391803     0.36370
H1279       H  0.95903355  0.40263236  0.35896951     0.16740
O1280       O  0.96373541  0.44342813  0.40573901    -0.60190
H1281       H  0.90016426  0.36282115  0.46510773     0.16750
O1282       O  0.89294858  0.32271595  0.41625093    -0.60280
H1283       H  0.90703480  0.30701332  0.42793387     0.43750
H1284       H  0.98782277  0.43873739  0.40531135     0.43700
C1285       C  0.99638360  0.07001208  0.18430504    -0.05360
C1286       C  0.52862752  0.07369439  0.19613056    -0.32790
C1287       C  0.53409597  0.09161233  0.22448419     0.36460
C1288       C  0.50728080  0.10652196  0.24101189    -0.05720
C1289       C  0.97554573  0.10417935  0.22837317    -0.32690
C1290       C  0.96984805  0.08596458  0.20054733     0.36370
H1291       H  0.54937716  0.06176863  0.18408344     0.16740
O1292       O  0.56548274  0.09383234  0.23625361    -0.60190
H1293       H  0.95472204  0.11560413  0.24090044     0.16750
O1294       O  0.93820774  0.08426303  0.18924196    -0.60280
H1295       H  0.92551705  0.06766863  0.20422699     0.43750
H1296       H  0.57592732  0.11455956  0.22584027     0.43700
C1297       C  0.98934499  0.05152976  0.42111628    -0.05360
C1298       C  0.51822594  0.04733497  0.40060779    -0.32790
C1299       C  0.52523305  0.06747374  0.37160120     0.36460
C1300       C  0.50337443  0.09239887  0.36304854    -0.05720
C1301       C  0.97397164  0.09544202  0.38276921    -0.32690
C1302       C  0.96688162  0.07558455  0.41137662     0.36370
H1303       H  0.53592716  0.02922384  0.40758575     0.16740
O1304       O  0.55421339  0.06374798  0.35278586    -0.60190
H1305       H  0.95609595  0.11345395  0.37592553     0.16750
O1306       O  0.93741075  0.07963227  0.42935156    -0.60280
H1307       H  0.94115727  0.09995261  0.44170124     0.43750
H1308       H  0.55016569  0.04351866  0.34040320     0.43700
C1309       C  0.98528718  0.20209800  0.31079694    -0.05360
C1310       C  0.95585770  0.20939271  0.29522620    -0.32790
C1311       C  0.94111775  0.23977723  0.29903651     0.36460
C1312       C  0.95566768  0.26361880  0.31883137    -0.05720
C1313       C  0.98499540  0.25626996  0.33465274    -0.32690
C1314       C  0.99973309  0.22577144  0.33085736     0.36370
H1315       H  0.94386397  0.19118227  0.28043398     0.16740
O1316       O  0.91174668  0.24551710  0.28434194    -0.60190
H1317       H  0.99696509  0.27452764  0.34939968     0.16750
O1318       O  0.52900652  0.21985732  0.34564245    -0.60280
H1319       H  0.52259773  0.21569265  0.36954144     0.43750
H1320       H  0.91782897  0.24839377  0.26024741     0.43700
C1321       C  0.66411736  0.02613879  0.45244594    -0.05360
C1322       C  0.64719023  0.99536689  0.45214596    -0.32790
C1323       C  0.61957679  0.48737453  0.47371969     0.36460
C1324       C  0.60809044  0.01025879  0.49667744    -0.05720
C1325       C  0.62576299  0.04070998  0.99805446    -0.32690
C1326       C  0.65382252  0.04870118  0.47621517     0.36370
H1327       H  0.65555579  0.47708988  0.43511997     0.16740
O1328       O  0.60407488  0.45677048  0.47229867    -0.60190
H1329       H  0.61711268  0.05884857  0.01507444     0.16750
O1330       O  0.66995067  0.07906490  0.47715756    -0.60280
H1331       H  0.68272002  0.07804371  0.99749184     0.43750
H1332       H  0.59134335  0.45770628  0.45193174     0.43700
C1333       C  0.84211643  0.02134705  0.47996933    -0.05360
C1334       C  0.84437622  0.04276199  0.45157421    -0.32790
C1335       C  0.81635454  0.04717312  0.43257583     0.36460
C1336       C  0.78568075  0.03049749  0.44236825    -0.05720
C1337       C  0.78364741  0.00951409  0.47087889    -0.32690
C1338       C  0.81116127  0.00521313  0.98976476     0.36370
H1339       H  0.86795824  0.05540542  0.44369099     0.16740
O1340       O  0.81891650  0.06832301  0.40514051    -0.60190
H1341       H  0.76039523  0.99617865  0.47869536     0.16750
O1342       O  0.80738301  0.48502338  0.01791492    -0.60280
H1343       H  0.80283519  0.50000014  0.03623170     0.43750
H1344       H  0.82975320  0.05573217  0.38733416     0.43700
C1345       C  0.63763088  0.44578766  0.19226682    -0.05360
C1346       C  0.62617312  0.41819285  0.17544483    -0.32790
C1347       C  0.59755855  0.41960925  0.15692051     0.36460
C1348       C  0.58039772  0.44908427  0.15474402    -0.05720
C1349       C  0.59081883  0.47581398  0.17327295    -0.32690
C1350       C  0.61902592  0.47436099  0.19186659     0.36370
H1351       H  0.64029111  0.39603272  0.17551859     0.16740
O1352       O  0.58779740  0.39281833  0.13967103    -0.60190
H1353       H  0.57777785  0.49864831  0.17226940     0.16750
O1354       O  0.63007183  0.50218756  0.20682231    -0.60280
H1355       H  0.61574655  0.00305103  0.22752568     0.43750
H1356       H  0.59996555  0.39580724  0.11765648     0.43700
C1357       C  0.76047424  0.44816580  0.16950113    -0.05360
C1358       C  0.78789135  0.42968214  0.17750773    -0.32790
C1359       C  0.81707990  0.43143875  0.15685249     0.36460
C1360       C  0.81933876  0.45229377  0.12804684    -0.05720
C1361       C  0.79140912  0.46935725  0.11900252    -0.32690
C1362       C  0.76191473  0.46717169  0.13937264     0.36370
H1363       H  0.78689013  0.41444631  0.20022025     0.16740
O1364       O  0.84337654  0.41280736  0.16510286    -0.60190
H1365       H  0.79306869  0.48583188  0.09715885     0.16750
O1366       O  0.73569574  0.48589807  0.13108998    -0.60280
H1367       H  0.72453111  0.47375801  0.11367734     0.43750
H1368       H  0.85985289  0.42844189  0.17396405     0.43700
C1369       C  0.71358682  0.47831902  0.28089201    -0.05360
C1370       C  0.70049236  0.46091276  0.30970666    -0.32790
C1371       C  0.70417717  0.47372909  0.34101311     0.36460
C1372       C  0.72070921  0.00474260  0.34397176    -0.05720
C1373       C  0.73427758  0.02198060  0.31523050    -0.32690
C1374       C  0.73060608  0.00910866  0.28384270     0.36370
H1375       H  0.68752097  0.43717088  0.30791214     0.16740
O1376       O  0.69149756  0.45572086  0.36865793    -0.60190
H1377       H  0.74693515  0.04586684  0.31707732     0.16750
O1378       O  0.74293583  0.02722447  0.25613959    -0.60280
H1379       H  0.72383433  0.03970937  0.24855008     0.43750
H1380       H  0.71066251  0.44382332  0.37697822     0.43700
C1381       C  0.83812493  0.15945856  0.10407600    -0.05360
C1382       C  0.83275566  0.13808979  0.07828396    -0.32790
C1383       C  0.84980209  0.10895931  0.07609491     0.36460
C1384       C  0.87280641  0.10063023  0.09986768    -0.05720
C1385       C  0.87659962  0.12064558  0.12695740    -0.32690
C1386       C  0.85963314  0.15014011  0.12903034     0.36370
H1387       H  0.81647376  0.14473469  0.05878323     0.16740
O1388       O  0.84491253  0.08943268  0.04970928    -0.60190
H1389       H  0.89404766  0.11438675  0.14550606     0.16750
O1390       O  0.86415122  0.16970064  0.15544544    -0.60280
H1391       H  0.88717811  0.17955183  0.15191308     0.43750
H1392       H  0.82857529  0.07169388  0.05827021     0.43700
C1393       C  0.85374492  0.28250405  0.09555286    -0.05360
C1394       C  0.84915199  0.30464028  0.06890166    -0.32790
C1395       C  0.86853252  0.33374674  0.06382944     0.36460
C1396       C  0.89435692  0.34148788  0.08521928    -0.05720
C1397       C  0.90007500  0.31873658  0.11129247    -0.32690
C1398       C  0.88002114  0.28937989  0.11654289     0.36370
H1399       H  0.83023806  0.29941775  0.05147465     0.16740
O1400       O  0.86211997  0.35417891  0.03722405    -0.60190
H1401       H  0.91944682  0.32407668  0.12818456     0.16750
O1402       O  0.88524053  0.26850784  0.14312650    -0.60280
H1403       H  0.90636097  0.25773899  0.13720389     0.43750
H1404       H  0.84211383  0.36616363  0.04445828     0.43700
C1405       C  0.57411624  0.18147025  0.02472889    -0.05360
C1406       C  0.57483398  0.16427292  0.05541876    -0.32790
C1407       C  0.55391542  0.13654399  0.06319443     0.36460
C1408       C  0.53130689  0.12530735  0.04012672    -0.05720
C1409       C  0.52961364  0.14311096  0.00972794    -0.32690
C1410       C  0.55074075  0.17119950  0.00199757     0.36370
H1411       H  0.59156608  0.17260330  0.07382545     0.16740
O1412       O  0.55534423  0.12092368  0.09383734    -0.60190
H1413       H  0.01278989  0.13461872  0.99148509     0.16750
O1414       O  0.54953180  0.18747378  0.47167115    -0.60280
H1415       H  0.02832270  0.19919010  0.47272131     0.43750
H1416       H  0.57601277  0.10833526  0.09256449     0.43700
C1417       C  0.58085048  0.30224921  0.01923106    -0.05360
C1418       C  0.59355231  0.33177536  0.00296018    -0.32790
C1419       C  0.57625211  0.36103999  0.00577054     0.36460
C1420       C  0.54620274  0.36102184  0.02549233    -0.05720
C1421       C  0.53347853  0.33134627  0.04121290    -0.32690
C1422       C  0.55042323  0.30232693  0.03840685     0.36370
H1423       H  0.61701488  0.33218393  0.98832244     0.16740
O1424       O  0.58989365  0.38971297  0.99082627    -0.60190
H1425       H  0.01043928  0.33069952  0.05659706     0.16750
O1426       O  0.53822273  0.27466592  0.05654518    -0.60280
H1427       H  0.01761938  0.26738914  0.04590214     0.43750
H1428       H  0.58269704  0.38963935  0.96774515     0.43700
C1429       C  0.68155079  0.23886995  0.04595692    -0.05360
C1430       C  0.70517994  0.21853468  0.03137551    -0.32790
C1431       C  0.73595594  0.21406134  0.04531141     0.36460
C1432       C  0.74357089  0.22970231  0.07466687    -0.05720
C1433       C  0.72011041  0.25027937  0.08913288    -0.32690
C1434       C  0.68929637  0.25486768  0.07509095     0.36370
H1435       H  0.69970514  0.20602689  0.00900245     0.16740
O1436       O  0.75862630  0.19468992  0.02972191    -0.60190
H1437       H  0.72554746  0.26252508  0.11165835     0.16750
O1438       O  0.66616908  0.27342892  0.09110787    -0.60280
H1439       H  0.67408777  0.29668405  0.08634961     0.43750
H1440       H  0.77336208  0.21018382  0.01536744     0.43700
C1441       C  0.59951185  0.27153820  0.01759161     0.03230
C1442       C  0.63281080  0.27094661  0.52689373    -0.12920
C1443       C  0.64797659  0.24066521  0.53221745     0.00730
C1444       C  0.62953458  0.21120461  0.52777306    -0.11440
C1445       C  0.59618080  0.21155048  0.01893302     0.03230
C1446       C  0.58205520  0.24176192  0.01215862    -0.10860
H1447       H  0.64620873  0.29381407  0.53164628     0.08820
H1448       H  0.64031468  0.18780277  0.53373138     0.06350
H1449       H  0.55614253  0.24211966  0.00599836     0.06200
C1450       C  0.82322045  0.19234577  0.60280783     0.03230
C1451       C  0.78978789  0.19529266  0.59463136    -0.12920
C1452       C  0.77677928  0.22641596  0.58886133     0.00730
C1453       C  0.79703655  0.25471530  0.59299916    -0.11440
C1454       C  0.83100684  0.25242919  0.59969478     0.03230
C1455       C  0.84375279  0.22105855  0.60480771    -0.10860
H1456       H  0.77417258  0.17331843  0.59162976     0.08820
H1457       H  0.78691578  0.27870019  0.58845307     0.06350
H1458       H  0.87022125  0.21882410  0.60771503     0.06200
C1459       C  0.67131529  0.44683661  0.70564274     0.03230
C1460       C  0.67627878  0.45738352  0.73781666    -0.12920
C1461       C  0.70869087  0.46453065  0.74790985     0.00730
C1462       C  0.73621200  0.46019175  0.72575958    -0.11440
C1463       C  0.73154190  0.44932679  0.69369775     0.03230
C1464       C  0.69910983  0.44225209  0.68403412    -0.10860
H1465       H  0.65488484  0.46152947  0.75442571     0.08820
H1466       H  0.76123709  0.46621250  0.73313508     0.06350
H1467       H  0.69542678  0.43480334  0.65900189     0.06200
C1468       C  0.75489536  0.03403038  0.92410669     0.03230
C1469       C  0.75369825  0.02506206  0.89088151    -0.12920
C1470       C  0.72269718  0.01937814  0.87692752     0.00730
C1471       C  0.69311740  0.02337648  0.89630374    -0.11440
C1472       C  0.69407974  0.03215780  0.92951710     0.03230
C1473       C  0.72497750  0.03885204  0.94263200    -0.10860
H1474       H  0.77650700  0.01960430  0.87697209     0.08820
H1475       H  0.66923460  0.01740922  0.88618800     0.06350
H1476       H  0.72584625  0.04395223  0.96869124     0.06200
C1477       C  0.51071098  0.12220372  0.77304929     0.03230
C1478       C  0.50315499  0.15544524  0.77602579    -0.12920
C1479       C  0.49911252  0.16890598  0.80738196     0.00730
C1480       C  0.50299853  0.14867883  0.83576637    -0.11440
C1481       C  0.50928823  0.11498473  0.83324528     0.03230
C1482       C  0.51409272  0.10218038  0.80170599    -0.10860
H1483       H  0.49866122  0.17033524  0.75397002     0.08820
H1484       H  0.49808270  0.15841293  0.86002891     0.06350
H1485       H  0.51691926  0.07594608  0.79941474     0.06200
C1486       C  0.92691847  0.34453209  0.85292396     0.03230
C1487       C  0.93709410  0.31181971  0.85175999    -0.12920
C1488       C  0.94192825  0.29699281  0.82103323     0.00730
C1489       C  0.93717876  0.31557085  0.79167221    -0.11440
C1490       C  0.92840995  0.34865499  0.79260185     0.03230
C1491       C  0.92149378  0.36213511  0.82325778    -0.10860
H1492       H  0.94268373  0.29849971  0.87441356     0.08820
H1493       H  0.94242535  0.30490176  0.76794136     0.06350
H1494       H  0.91496489  0.38772643  0.82405868     0.06200
O1495       O  0.52656023  0.41439599  0.51021740    -0.86380
O1496       O  0.93071903  0.46161437  0.66889109    -0.86550
O1497       O  0.53238314  0.43086938  0.62612531    -0.88220
O1498       O  0.94162001  0.37889772  0.59429795    -0.86970
O1499       O  0.89873771  0.39597218  0.56379271    -0.86570
O1500       O  0.55404953  0.48397836  0.61801561    -0.87940
O1501       O  0.96121667  0.41844112  0.65155315    -0.86410
O1502       O  0.51536199  0.39166780  0.56278837    -0.86000
Zr1503     Zr  0.98128328  0.42745049  0.59489921     2.84310
O1504       O  0.92792739  0.44824205  0.59737220    -1.07980
O1505       O  0.51782114  0.46242028  0.56090058    -1.08710
C1506       C  0.52861422  0.39133382  0.53305498     1.06720
C1507       C  0.94409724  0.43337911  0.67368045     1.06670
C1508       C  0.55392860  0.45455346  0.63124064     1.09650
C1509       C  0.91314065  0.37406459  0.58101754     1.07430
H1510       H  0.99126721  0.47869817  0.63906655     0.32990
O1511       O  0.98326777  0.47987139  0.61697074    -1.28930
H1512       H  0.96054958  0.40898204  0.53274107     0.32660
O1513       O  0.96152772  0.43071028  0.54156547    -1.30610
O1514       O  0.89907585  0.05146868  0.61692795    -0.86380
O1515       O  0.99707938  0.50529602  0.95909404    -0.87870
O1516       O  0.51401256  0.04485854  0.63412980    -0.86450
O1517       O  0.85824201  0.45049861  0.58167697    -0.86500
O1518       O  0.91262992  0.42314016  0.49192248    -0.86220
O1519       O  0.56925867  0.01597333  0.54381654    -0.86020
O1520       O  0.98449520  0.08786973  0.53339260    -0.86390
O1521       O  0.89437079  0.03697014  0.50211671    -0.85860
O1522       O  0.52802306  0.07179851  0.56383574    -0.86920
O1523       O  0.87252393  0.48405866  0.51050603    -0.86080
O1524       O  0.96037333  0.03505824  0.65598322    -0.86480
O1525       O  0.55417790  0.48632919  0.49957302    -0.86200
O1526       O  0.96628311  0.43384379  0.97059670    -0.85850
O1527       O  0.87263008  0.47760923  0.62800734    -0.86260
O1528       O  0.90962177  0.07425917  0.56418662    -0.86550
O1529       O  0.96593377  0.04828791  0.97563536    -0.87890
Zr1530     Zr  0.92956836  0.50021714  0.61996382     2.83100
Zr1531     Zr  0.99717974  0.46643409  0.50778870     2.83500
Zr1532     Zr  0.51916046  0.01501531  0.58259172     2.84090
Zr1533     Zr  0.90833802  0.45208795  0.54407936     2.83360
Zr1534     Zr  0.94563535  0.03941369  0.53257367     2.84220
O1535       O  0.94369275  0.48738215  0.50976228    -1.08460
O1536       O  0.96550878  0.03587150  0.58590842    -1.07960
C1537       C  0.89545085  0.07368140  0.59361714     1.06700
C1538       C  0.98376513  0.03349355  0.95390074     1.09310
C1539       C  0.99000893  0.04861435  0.65623079     1.06870
C1540       C  0.85213492  0.46066803  0.61119623     1.07230
C1541       C  0.93658127  0.42086991  0.96947298     1.06810
C1542       C  0.57527296  0.50372182  0.51503349     1.06360
C1543       C  0.51299238  0.09311920  0.54632057     1.06790
C1544       C  0.87181655  0.01387136  0.49853665     1.06300
H1545       H  0.51367525  0.03322180  0.51550350     0.32980
O1546       O  0.99900573  0.01864174  0.52967139    -1.29560
H1547       H  0.88720092  0.01216224  0.56751653     0.33000
O1548       O  0.90952083  0.50412102  0.56656126    -1.30940
C1549       C  0.94057884  0.41535930  0.70647124    -0.05360
C1550       C  0.96492847  0.39258117  0.71372857    -0.32790
C1551       C  0.96092332  0.37070486  0.74119900     0.36460
C1552       C  0.93193775  0.37091751  0.76239719    -0.05720
C1553       C  0.90838285  0.39498977  0.75646362    -0.32690
C1554       C  0.91285660  0.41752121  0.72907072     0.36370
H1555       H  0.98739315  0.39138374  0.69773770     0.16740
O1556       O  0.98641313  0.35039729  0.74805393    -0.60190
H1557       H  0.88644407  0.39634127  0.77311804     0.16750
O1558       O  0.88966326  0.44082626  0.72437247    -0.60280
H1559       H  0.89764797  0.46014314  0.73642933     0.43750
H1560       H  0.98621429  0.33367768  0.73084470     0.43700
C1561       C  0.92792060  0.36316052  0.88365037    -0.05360
C1562       C  0.94570359  0.39371028  0.88185993    -0.32870
C1563       C  0.94699035  0.41316692  0.90922555     0.36460
C1564       C  0.93078192  0.40213237  0.93969841    -0.05720
C1565       C  0.91251808  0.37173399  0.94175534    -0.32690
C1566       C  0.91121094  0.35208242  0.91391161     0.36370
H1567       H  0.95900267  0.40264553  0.85896616     0.16740
O1568       O  0.96369786  0.44343359  0.90574304    -0.60190
H1569       H  0.90015869  0.36279960  0.96510556     0.16750
O1570       O  0.89294694  0.32270181  0.91624180    -0.60280
H1571       H  0.90703553  0.30700372  0.92792784     0.43750
H1572       H  0.98778703  0.43874966  0.90530928     0.43700
C1573       C  0.99639363  0.07002634  0.68431113    -0.05360
C1574       C  0.52863821  0.07371199  0.69613455    -0.32790
C1575       C  0.53410530  0.09162429  0.72449217     0.36460
C1576       C  0.50728793  0.10652453  0.74102611    -0.05720
C1577       C  0.97555182  0.10417834  0.72839022    -0.32690
C1578       C  0.96985560  0.08596949  0.70056029     0.36370
H1579       H  0.54938962  0.06179319  0.68408240     0.16740
O1580       O  0.56549302  0.09384831  0.73625892    -0.60190
H1581       H  0.95472660  0.11559640  0.74092222     0.16750
O1582       O  0.93821420  0.08426477  0.68925766    -0.60280
H1583       H  0.92552773  0.06766529  0.70424029     0.43750
H1584       H  0.57593245  0.11457925  0.72584882     0.43700
C1585       C  0.98934144  0.05151088  0.92112231    -0.05360
C1586       C  0.51822485  0.04732088  0.90061590    -0.32790
C1587       C  0.52523394  0.06746473  0.87161278     0.36460
C1588       C  0.50337497  0.09239042  0.86306178    -0.05720
C1589       C  0.97397015  0.09542905  0.88278045    -0.32690
C1590       C  0.96687794  0.07556628  0.91138398     0.36370
H1591       H  0.53592637  0.02920973  0.90759309     0.16740
O1592       O  0.55421633  0.06374309  0.85279935    -0.60190
H1593       H  0.95609415  0.11344107  0.87593789     0.16750
O1594       O  0.93740472  0.07960952  0.92935658    -0.60280
H1595       H  0.94114782  0.09992862  0.94170909     0.43750
H1596       H  0.55017153  0.04351497  0.84041401     0.43700
C1597       C  0.98528550  0.20209425  0.81081276    -0.05360
C1598       C  0.95586079  0.20938994  0.79523370    -0.32790
C1599       C  0.94112278  0.23977654  0.79903608     0.36460
C1600       C  0.95566966  0.26361947  0.81883135    -0.05720
C1601       C  0.98499199  0.25626935  0.83466188    -0.32690
C1602       C  0.99972781  0.22576871  0.83087433     0.36370
H1603       H  0.94386968  0.19117902  0.78044011     0.16740
O1604       O  0.91175627  0.24551713  0.78433333    -0.60190
H1605       H  0.99695906  0.27452758  0.84941010     0.16750
O1606       O  0.52899665  0.21985380  0.84566766    -0.60280
H1607       H  0.52258128  0.21568964  0.86956534     0.43750
H1608       H  0.91784475  0.24839140  0.76023983     0.43700
C1609       C  0.66410398  0.02610786  0.95244748    -0.05360
C1610       C  0.64717304  0.99533826  0.95214036    -0.32790
C1611       C  0.61956675  0.48734807  0.97371189     0.36460
C1612       C  0.60807771  0.01022157  0.99668009    -0.05720
C1613       C  0.62577233  0.04074986  0.49804504    -0.32690
C1614       C  0.65381230  0.04866456  0.97622415     0.36370
H1615       H  0.65554427  0.47706716  0.93510941     0.16740
O1616       O  0.60406186  0.45674600  0.97228506    -0.60190
H1617       H  0.61711883  0.05889232  0.51505914     0.16750
O1618       O  0.66994241  0.07902666  0.97717345    -0.60280
H1619       H  0.68273362  0.07808516  0.49747253     0.43750
H1620       H  0.59132952  0.45768749  0.95191883     0.43700
C1621       C  0.84213061  0.02135519  0.97994737    -0.05360
C1622       C  0.84436973  0.04276658  0.95156692    -0.32790
C1623       C  0.81634141  0.04716363  0.93257750     0.36460
C1624       C  0.78566678  0.03048474  0.94238674    -0.05720
C1625       C  0.78364845  0.00951162  0.97092364    -0.32690
C1626       C  0.81112951  0.00523411  0.48978880     0.36370
H1627       H  0.86795078  0.05540405  0.94368306     0.16740
O1628       O  0.81890164  0.06831111  0.90514074    -0.60190
H1629       H  0.76040799  0.99614619  0.97873379     0.16750
O1630       O  0.80738842  0.48504155  0.51791016    -0.60280
H1631       H  0.80284084  0.50001822  0.53622709     0.43750
H1632       H  0.82974312  0.05572106  0.88733638     0.43700
C1633       C  0.63763897  0.44579734  0.69225782    -0.05360
C1634       C  0.62617731  0.41820419  0.67543596    -0.32790
C1635       C  0.59756293  0.41962480  0.65691204     0.36460
C1636       C  0.58040634  0.44910245  0.65473581    -0.05720
C1637       C  0.59083197  0.47583110  0.67326388    -0.32690
C1638       C  0.61903892  0.47437386  0.69185719     0.36370
H1639       H  0.64029194  0.39604189  0.67550982     0.16740
O1640       O  0.58779759  0.39283502  0.63966299    -0.60190
H1641       H  0.57779440  0.49866742  0.67226052     0.16750
O1642       O  0.63008937  0.50219883  0.70681277    -0.60280
H1643       H  0.61596611  0.00318972  0.72735634     0.43750
H1644       H  0.59996517  0.39582249  0.61764804     0.43700
C1645       C  0.76048112  0.44816946  0.66949288    -0.05360
C1646       C  0.78789851  0.42968536  0.67749757    -0.32790
C1647       C  0.81708695  0.43144428  0.65684223     0.36460
C1648       C  0.81934519  0.45230194  0.62803851    -0.05720
C1649       C  0.79141524  0.46936566  0.61899579    -0.32690
C1650       C  0.76192103  0.46717790  0.63936596     0.36370
H1651       H  0.78689768  0.41444759  0.70020880     0.16740
O1652       O  0.84338419  0.41281286  0.66509079    -0.60190
H1653       H  0.79307450  0.48584229  0.59715360     0.16750
O1654       O  0.73570177  0.48590480  0.63108525    -0.60280
H1655       H  0.72453791  0.47376696  0.61367062     0.43750
H1656       H  0.85986019  0.42844690  0.67395327     0.43700
C1657       C  0.71359417  0.47831099  0.78088768    -0.05360
C1658       C  0.70050174  0.46089972  0.80970015    -0.32790
C1659       C  0.70418429  0.47371271  0.84100828     0.36460
C1660       C  0.72070701  0.00471700  0.84397397    -0.05720
C1661       C  0.73427346  0.02195485  0.81523163    -0.32690
C1662       C  0.73061058  0.00907667  0.78384510     0.36370
H1663       H  0.68753328  0.43715681  0.80790249     0.16740
O1664       O  0.69150666  0.45569996  0.86865101    -0.60190
H1665       H  0.74692349  0.04584504  0.81707656     0.16750
O1666       O  0.74293846  0.02719137  0.75614058    -0.60280
H1667       H  0.72383335  0.03966728  0.74854531     0.43750
H1668       H  0.71067317  0.44380388  0.87696985     0.43700
C1669       C  0.83813083  0.15947359  0.60407731    -0.05360
C1670       C  0.83275688  0.13810126  0.57828919    -0.32790
C1671       C  0.84980239  0.10897004  0.57610128     0.36460
C1672       C  0.87281044  0.10064346  0.59987122    -0.05720
C1673       C  0.87660766  0.12066193  0.62695800    -0.32690
C1674       C  0.85964202  0.15015722  0.62902986     0.36370
H1675       H  0.81647255  0.14474413  0.55878990     0.16740
O1676       O  0.84490887  0.08944060  0.54971867    -0.60190
H1677       H  0.89405866  0.11440521  0.64550458     0.16750
O1678       O  0.86416424  0.16972075  0.65544195    -0.60280
H1679       H  0.88719167  0.17956992  0.65190658     0.43750
H1680       H  0.82857163  0.07170340  0.55828348     0.43700
C1681       C  0.85376036  0.28251868  0.59553921    -0.05360
C1682       C  0.84917195  0.30465142  0.56888386    -0.32790
C1683       C  0.86855313  0.33375769  0.56381109     0.36460
C1684       C  0.89437236  0.34150238  0.58520547    -0.05720
C1685       C  0.90008684  0.31875380  0.61128215    -0.32690
C1686       C  0.88003311  0.28939706  0.61653248     0.36370
H1687       H  0.83026066  0.29942643  0.55145477     0.16740
O1688       O  0.86214633  0.35418653  0.53720127    -0.60190
H1689       H  0.91945507  0.32409654  0.62817739     0.16750
O1690       O  0.88524859  0.26852783  0.64311938    -0.60280
H1691       H  0.90636854  0.25775669  0.63720011     0.43750
H1692       H  0.84213722  0.36617031  0.54442847     0.43700
C1693       C  0.57411626  0.18150008  0.52472910    -0.05360
C1694       C  0.57482267  0.16430992  0.55542389    -0.32790
C1695       C  0.55390051  0.13658342  0.56319922     0.36460
C1696       C  0.53130090  0.12534169  0.54012568    -0.05720
C1697       C  0.52961695  0.14313985  0.50972260    -0.32690
C1698       C  0.55074692  0.17122656  0.50199295     0.36370
H1699       H  0.59154930  0.17264358  0.57383395     0.16740
O1700       O  0.55531779  0.12096935  0.59384660    -0.60190
H1701       H  0.01279948  0.13464386  0.49147586     0.16750
O1702       O  0.54951620  0.18745183  0.97167948    -0.60280
H1703       H  0.02830489  0.19916418  0.97273673     0.43750
H1704       H  0.57598740  0.10838203  0.59258521     0.43700
C1705       C  0.58086287  0.30227563  0.51922555    -0.05360
C1706       C  0.59356683  0.33180205  0.50295681    -0.32790
C1707       C  0.57626676  0.36106685  0.50576638     0.36460
C1708       C  0.54621551  0.36104840  0.52548519    -0.05720
C1709       C  0.53348915  0.33137252  0.54120323    -0.32690
C1710       C  0.55043374  0.30235324  0.53839831     0.36370
H1711       H  0.61703077  0.33221066  0.48832136     0.16740
O1712       O  0.58990996  0.38974006  0.49082427    -0.60190
H1713       H  0.01044831  0.33072552  0.55658499     0.16750
O1714       O  0.53823105  0.27469204  0.55653506    -0.60280
H1715       H  0.01762839  0.26741629  0.54589026     0.43750
H1716       H  0.58271679  0.38966671  0.46774192     0.43700
C1717       C  0.68155748  0.23888948  0.54595883    -0.05360
C1718       C  0.70518307  0.21854903  0.53137956    -0.32790
C1719       C  0.73596007  0.21407538  0.54531339     0.36460
C1720       C  0.74357993  0.22972142  0.57466468    -0.05720
C1721       C  0.72012295  0.25030346  0.58912874    -0.32690
C1722       C  0.68930780  0.25489205  0.57508886     0.36370
H1723       H  0.69970492  0.20603773  0.50900941     0.16740
O1724       O  0.75862675  0.19469886  0.52972562    -0.60190
H1725       H  0.72556366  0.26255306  0.61165107     0.16750
O1726       O  0.66618421  0.27345878  0.59110399    -0.60280
H1727       H  0.67410610  0.29671249  0.58634230     0.43750
H1728       H  0.77336255  0.21018899  0.51536695     0.43700
C1729       C  0.59952310  0.77155984  0.51759143     0.03230
C1730       C  0.63280108  0.77092346  0.02689466    -0.12920
C1731       C  0.64797038  0.74064349  0.03221467     0.00730
C1732       C  0.62953160  0.71118163  0.02776837    -0.11440
C1733       C  0.59618708  0.71157186  0.51894317     0.03230
C1734       C  0.58206504  0.74178355  0.51216134    -0.10860
H1735       H  0.64619740  0.79379164  0.03164783     0.08820
H1736       H  0.64031563  0.68778076  0.03372244     0.06350
H1737       H  0.55615355  0.74214204  0.50599719     0.06200
C1738       C  0.82321196  0.69232929  0.10280985     0.03230
C1739       C  0.78977977  0.69527459  0.09463195    -0.12920
C1740       C  0.77676882  0.72639734  0.08886614     0.00730
C1741       C  0.79702295  0.75469730  0.09301020    -0.11440
C1742       C  0.83099346  0.75241292  0.09970580     0.03230
C1743       C  0.84374190  0.72104284  0.10481441    -0.10860
H1744       H  0.77416674  0.67329980  0.09162585     0.08820
H1745       H  0.78689984  0.77868175  0.08846797     0.06350
H1746       H  0.87021049  0.71880959  0.10772175     0.06200
C1747       C  0.67130793  0.94683221  0.20565080     0.03230
C1748       C  0.67627181  0.95738351  0.23782334    -0.12920
C1749       C  0.70868404  0.96453412  0.24791488     0.00730
C1750       C  0.73620484  0.96019345  0.22576476    -0.11440
C1751       C  0.73153461  0.94932449  0.19370455     0.03230
C1752       C  0.69910255  0.94224719  0.18404220    -0.10860
H1753       H  0.65487807  0.96152979  0.25443249     0.08820
H1754       H  0.76123001  0.96621581  0.23313909     0.06350
H1755       H  0.69541955  0.93479536  0.15901098     0.06200
C1756       C  0.75489980  0.53405018  0.42410547     0.03230
C1757       C  0.75369984  0.52508188  0.39088046    -0.12920
C1758       C  0.72269731  0.51940091  0.37692830     0.00730
C1759       C  0.69311924  0.52340190  0.39630609    -0.11440
C1760       C  0.69408460  0.53218326  0.42951900     0.03230
C1761       C  0.72498354  0.53887470  0.44263234    -0.10860
H1762       H  0.77650725  0.51962254  0.37696963     0.08820
H1763       H  0.66923510  0.51743697  0.38619198     0.06350
H1764       H  0.72585398  0.54397506  0.46869146     0.06200
C1765       C  0.51070295  0.62220341  0.27303539     0.03230
C1766       C  0.50314823  0.65544576  0.27601024    -0.12920
C1767       C  0.49911144  0.66890922  0.30736581     0.00730
C1768       C  0.50300014  0.64868408  0.33575067    -0.11440
C1769       C  0.50928615  0.61498938  0.33323158     0.03230
C1770       C  0.51408652  0.60218207  0.30169324    -0.10860
H1771       H  0.49865231  0.67033448  0.25395427     0.08820
H1772       H  0.49808833  0.65842040  0.36001287     0.06350
H1773       H  0.51691162  0.57594733  0.29940403     0.06200
C1774       C  0.92692770  0.84453225  0.35293443     0.03230
C1775       C  0.93709968  0.81181867  0.35176806    -0.12920
C1776       C  0.94192642  0.79699201  0.32104009     0.00730
C1777       C  0.93717263  0.81557097  0.29168101    -0.11440
C1778       C  0.92840799  0.84865585  0.29261318     0.03230
C1779       C  0.92149916  0.86213647  0.32327001    -0.10860
H1780       H  0.94269286  0.79849802  0.37442014     0.08820
H1781       H  0.94241468  0.80490254  0.26794896     0.06350
H1782       H  0.91497455  0.88772899  0.32407238     0.06200
O1783       O  0.52654746  0.91436885  0.01022296    -0.86380
O1784       O  0.93071610  0.96160519  0.16889621    -0.86550
O1785       O  0.53237530  0.93084887  0.12613199    -0.88220
O1786       O  0.94160829  0.87887993  0.09430854    -0.86970
O1787       O  0.89872724  0.89595605  0.06380276    -0.86570
O1788       O  0.55404404  0.98395672  0.11801853    -0.87940
O1789       O  0.96120931  0.91842804  0.15156034    -0.86410
O1790       O  0.51535070  0.89164345  0.06279538    -0.86000
Zr1791     Zr  0.98127516  0.92743038  0.09490493     2.84310
O1792       O  0.92792065  0.94822555  0.09737766    -1.07980
O1793       O  0.51781381  0.96239639  0.06090286    -1.08710
C1794       C  0.52860170  0.89130763  0.03306157     1.06720
C1795       C  0.94409267  0.93336959  0.17368716     1.06670
C1796       C  0.55392141  0.95453287  0.13124634     1.09650
C1797       C  0.91312828  0.87404828  0.08102895     1.07430
H1798       H  0.99126282  0.97868098  0.13906871     0.32990
O1799       O  0.98326298  0.97985285  0.11697303    -1.28930
H1800       H  0.96053802  0.90896039  0.03274735     0.32660
O1801       O  0.96151809  0.93068891  0.04157108    -1.30610
O1802       O  0.89906598  0.55145390  0.11692696    -0.86380
O1803       O  0.99708840  0.00531988  0.45909017    -0.87870
O1804       O  0.51400145  0.54483389  0.13413057    -0.86450
O1805       O  0.85823439  0.95048560  0.08168402    -0.86500
O1806       O  0.91261612  0.92312312  0.99192752    -0.86220
O1807       O  0.56924808  0.51593214  0.04382352    -0.86020
O1808       O  0.98449567  0.58784210  0.03339646    -0.86390
O1809       O  0.89436868  0.53695932  0.00211800    -0.85860
O1810       O  0.52802161  0.57176443  0.06383884    -0.86920
O1811       O  0.87251627  0.98404133  0.01051220    -0.86080
O1812       O  0.96036019  0.53504240  0.15598185    -0.86480
O1813       O  0.55417044  0.98630010  0.99957259    -0.86200
O1814       O  0.96630517  0.93386386  0.47059518    -0.85850
O1815       O  0.87262573  0.97759719  0.12801272    -0.86260
O1816       O  0.90961854  0.57424355  0.06418636    -0.86550
O1817       O  0.96593732  0.54830970  0.47563321    -0.87890
Zr1818     Zr  0.92956500  0.00020223  0.11996595     2.83100
Zr1819     Zr  0.99717104  0.96640944  0.00779114     2.83500
Zr1820     Zr  0.51914886  0.51498292  0.08259769     2.84090
Zr1821     Zr  0.90832974  0.95206992  0.04408538     2.83360
Zr1822     Zr  0.94562833  0.53939235  0.03257687     2.84220
O1823       O  0.94368547  0.98736063  0.00976580    -1.08460
O1824       O  0.96550031  0.53584771  0.08591138    -1.07960
C1825       C  0.89544521  0.57366701  0.09361567     1.06700
C1826       C  0.98376887  0.53351536  0.45389847     1.09310
C1827       C  0.98999725  0.54859557  0.15622923     1.06870
C1828       C  0.85212879  0.96065662  0.11120294     1.07230
C1829       C  0.93660523  0.92088507  0.46947287     1.06810
C1830       C  0.57526677  0.00369269  0.01503154     1.06360
C1831       C  0.51299410  0.59308734  0.04632335     1.06790
C1832       C  0.87182170  0.51386361  0.99852396     1.06300
H1833       H  0.51366704  0.53319121  0.01550929     0.32980
O1834       O  0.99899520  0.51861306  0.02967679    -1.29560
H1835       H  0.88718814  0.51214866  0.06751554     0.33000
O1836       O  0.90951568  0.00410410  0.06656440    -1.30940
C1837       C  0.94057593  0.91535425  0.20647984    -0.05360
C1838       C  0.96492632  0.89257774  0.21373894    -0.32790
C1839       C  0.96092176  0.87070407  0.24121119     0.36460
C1840       C  0.93193619  0.87091813  0.26240911    -0.05720
C1841       C  0.90838150  0.89499014  0.25647491    -0.32690
C1842       C  0.91285451  0.91751885  0.22907988     0.36370
H1843       H  0.98739063  0.89137913  0.19774776     0.16740
O1844       O  0.98641164  0.85039713  0.24806779    -0.60190
H1845       H  0.88644341  0.89634298  0.27313002     0.16750
O1846       O  0.88966109  0.94082346  0.22437983    -0.60280
H1847       H  0.89764626  0.96014168  0.23643445     0.43750
H1848       H  0.98621270  0.83367593  0.23086014     0.43700
C1849       C  0.92793958  0.86316123  0.38365961    -0.05360
C1850       C  0.94573272  0.89370543  0.38186593    -0.32870
C1851       C  0.94702342  0.91316617  0.40922830     0.36460
C1852       C  0.93080844  0.90214128  0.43970135    -0.05720
C1853       C  0.91253647  0.87174721  0.44176167    -0.32690
C1854       C  0.91122557  0.85209161  0.41392116     0.36370
H1855       H  0.95903454  0.90263393  0.35897123     0.16740
O1856       O  0.96373932  0.94342838  0.40574138    -0.60190
H1857       H  0.90017211  0.86281976  0.46511189     0.16750
O1858       O  0.89295279  0.82271612  0.41625433    -0.60280
H1859       H  0.90703917  0.80701330  0.42793680     0.43750
H1860       H  0.98782679  0.93873788  0.40531184     0.43700
C1861       C  0.99638330  0.57001216  0.18430582    -0.05360
C1862       C  0.52862708  0.57369445  0.19613169    -0.32790
C1863       C  0.53409519  0.59161205  0.22448566     0.36460
C1864       C  0.50727980  0.60652134  0.24101342    -0.05720
C1865       C  0.97554488  0.60417879  0.22837432    -0.32690
C1866       C  0.96984756  0.58596442  0.20054812     0.36370
H1867       H  0.54937688  0.56176893  0.18408457     0.16740
O1868       O  0.56548187  0.59383216  0.23625527    -0.60190
H1869       H  0.95472103  0.61560339  0.24090152     0.16750
O1870       O  0.93820740  0.58426302  0.18924238    -0.60280
H1871       H  0.92551653  0.56766850  0.20422712     0.43750
H1872       H  0.57592643  0.61455941  0.22584200     0.43700
C1873       C  0.98934384  0.55153010  0.42111876    -0.05360
C1874       C  0.51822456  0.54733476  0.40061009    -0.32790
C1875       C  0.52523179  0.56747335  0.37160331     0.36460
C1876       C  0.50337349  0.59239879  0.36305060    -0.05720
C1877       C  0.97397101  0.59544259  0.38277162    -0.32690
C1878       C  0.96688094  0.57558540  0.41137921     0.36370
H1879       H  0.53592542  0.52922322  0.40758796     0.16740
O1880       O  0.55421187  0.56374699  0.35278776    -0.60190
H1881       H  0.95609553  0.61345476  0.37592803     0.16750
O1882       O  0.93741029  0.57963372  0.42935431    -0.60280
H1883       H  0.94115736  0.59995396  0.44170400     0.43750
H1884       H  0.55016372  0.54351761  0.34040532     0.43700
C1885       C  0.98528647  0.70209795  0.31079835    -0.05360
C1886       C  0.95585714  0.70939317  0.29522757    -0.32790
C1887       C  0.94111759  0.73977793  0.29903794     0.36460
C1888       C  0.95566778  0.76361929  0.31883289    -0.05720
C1889       C  0.98499540  0.75626996  0.33465423    -0.32690
C1890       C  0.99973268  0.72577122  0.33085879     0.36370
H1891       H  0.94386317  0.69118293  0.28043530     0.16740
O1892       O  0.91174662  0.74551822  0.28434335    -0.60190
H1893       H  0.99696535  0.77452743  0.34940122     0.16750
O1894       O  0.52900611  0.71985672  0.34564383    -0.60280
H1895       H  0.52259734  0.71569230  0.36954285     0.43750
H1896       H  0.91782893  0.74839475  0.26024882     0.43700
C1897       C  0.66411024  0.52613430  0.45245066    -0.05360
C1898       C  0.64718281  0.49536262  0.45214902    -0.32790
C1899       C  0.61958372  0.98738029  0.47371621     0.36460
C1900       C  0.60808456  0.51025071  0.49668387    -0.05720
C1901       C  0.62576280  0.54070914  0.99805614    -0.32690
C1902       C  0.65381608  0.54869460  0.47622249     0.36370
H1903       H  0.65556416  0.97709277  0.43511888     0.16740
O1904       O  0.60408289  0.95677527  0.47229831    -0.60190
H1905       H  0.61711225  0.55884773  0.01507600     0.16750
O1906       O  0.66994361  0.57905849  0.47716631    -0.60280
H1907       H  0.68272064  0.57804255  0.99749347     0.43750
H1908       H  0.59135191  0.95770818  0.45193094     0.43700
C1909       C  0.84213662  0.52137248  0.47994299    -0.05360
C1910       C  0.84437547  0.54278351  0.45156229    -0.32790
C1911       C  0.81634678  0.54718076  0.43257347     0.36460
C1912       C  0.78567203  0.53050261  0.44238371    -0.05720
C1913       C  0.78365411  0.50952938  0.47092051    -0.32690
C1914       C  0.81116219  0.50521216  0.98976556     0.36370
H1915       H  0.86795653  0.55542070  0.44367791     0.16740
O1916       O  0.81890671  0.56832788  0.40513644    -0.60190
H1917       H  0.76041348  0.49616457  0.47873135     0.16750
O1918       O  0.80738171  0.98502416  0.01791396    -0.60280
H1919       H  0.80283382  0.00000081  0.03623083     0.43750
H1920       H  0.82974635  0.55573696  0.38733169     0.43700
C1921       C  0.63763074  0.94578754  0.19226687    -0.05360
C1922       C  0.62617291  0.91819270  0.17544498    -0.32790
C1923       C  0.59755833  0.91960907  0.15692068     0.36460
C1924       C  0.58039753  0.94908411  0.15474412    -0.05720
C1925       C  0.59081864  0.97581384  0.17327304    -0.32690
C1926       C  0.61902576  0.97436086  0.19186666     0.36370
H1927       H  0.64029089  0.89603256  0.17551873     0.16740
O1928       O  0.58779717  0.89281814  0.13967123    -0.60190
H1929       H  0.57777768  0.99864816  0.17226944     0.16750
O1930       O  0.63007170  0.00218745  0.20682233    -0.60280
H1931       H  0.61574660  0.50305115  0.22752561     0.43750
H1932       H  0.59996537  0.89580700  0.11765669     0.43700
C1933       C  0.76047401  0.94816488  0.16950012    -0.05360
C1934       C  0.78789116  0.92968135  0.17750687    -0.32790
C1935       C  0.81707987  0.93143830  0.15685192     0.36460
C1936       C  0.81933877  0.95229338  0.12804634    -0.05720
C1937       C  0.79140911  0.96935674  0.11900186    -0.32690
C1938       C  0.76191461  0.96717099  0.13937179     0.36370
H1939       H  0.78688991  0.91444552  0.20021940     0.16740
O1940       O  0.84337674  0.91280736  0.16510260    -0.60190
H1941       H  0.79306876  0.98583147  0.09715826     0.16750
O1942       O  0.73569569  0.98589748  0.13108920    -0.60280
H1943       H  0.72453093  0.97375745  0.11367663     0.43750
H1944       H  0.85985208  0.92844196  0.17396525     0.43700
C1945       C  0.71358860  0.97831909  0.28089073    -0.05360
C1946       C  0.70049477  0.96091314  0.30970578    -0.32790
C1947       C  0.70418166  0.97372922  0.34101199     0.36460
C1948       C  0.72070306  0.50474322  0.34397360    -0.05720
C1949       C  0.73427232  0.52198138  0.31523273    -0.32690
C1950       C  0.73060304  0.50910909  0.28384469     0.36370
H1951       H  0.68752234  0.93717171  0.30791176     0.16740
O1952       O  0.69150211  0.95572169  0.36865729    -0.60190
H1953       H  0.74692899  0.54586799  0.31707999     0.16750
O1954       O  0.74293367  0.52722509  0.25614203    -0.60280
H1955       H  0.72383222  0.53970942  0.24855146     0.43750
H1956       H  0.71066674  0.94382327  0.37697703     0.43700
C1957       C  0.83812479  0.65945860  0.10407605    -0.05360
C1958       C  0.83275552  0.63808987  0.07828398    -0.32790
C1959       C  0.84980201  0.60895942  0.07609488     0.36460
C1960       C  0.87280636  0.60063037  0.09986761    -0.05720
C1961       C  0.87659955  0.62064568  0.12695737    -0.32690
C1962       C  0.85963302  0.65014016  0.12903037     0.36370
H1963       H  0.81647359  0.64473477  0.05878328     0.16740
O1964       O  0.84491246  0.58943282  0.04970923    -0.60190
H1965       H  0.89404761  0.61438684  0.14550601     0.16750
O1966       O  0.86415110  0.66970067  0.15544550    -0.60280
H1967       H  0.88717798  0.67955186  0.15191315     0.43750
H1968       H  0.82857526  0.57169397  0.05827016     0.43700
C1969       C  0.85374495  0.78250399  0.09555266    -0.05360
C1970       C  0.84915227  0.80463998  0.06890120    -0.32790
C1971       C  0.86853284  0.83374641  0.06382891     0.36460
C1972       C  0.89435696  0.84148775  0.08521898    -0.05720
C1973       C  0.90007482  0.81873666  0.11129242    -0.32690
C1974       C  0.88002096  0.78937998  0.11654287     0.36370
H1975       H  0.83023850  0.79941728  0.05147407     0.16740
O1976       O  0.86212063  0.85417835  0.03722323    -0.60190
H1977       H  0.91944646  0.82407692  0.12818467     0.16750
O1978       O  0.88524013  0.76850811  0.14312669    -0.60280
H1979       H  0.90636055  0.75773914  0.13720429     0.43750
H1980       H  0.84211436  0.86616308  0.04445706     0.43700
C1981       C  0.57411631  0.68147041  0.02472871    -0.05360
C1982       C  0.57483399  0.66427319  0.05541864    -0.32790
C1983       C  0.55391543  0.63654428  0.06319436     0.36460
C1984       C  0.53130696  0.62530756  0.04012664    -0.05720
C1985       C  0.52961373  0.64311109  0.00972781    -0.32690
C1986       C  0.55074085  0.67119962  0.00199739     0.36370
H1987       H  0.59156607  0.67260363  0.07382533     0.16740
O1988       O  0.55534417  0.62092407  0.09383733    -0.60190
H1989       H  0.01278998  0.63461880  0.99148498     0.16750
O1990       O  0.54953211  0.68746994  0.47168230    -0.60280
H1991       H  0.02832158  0.69918385  0.47273339     0.43750
H1992       H  0.57601269  0.60833563  0.09256457     0.43700
C1993       C  0.58085068  0.80224928  0.01923094    -0.05360
C1994       C  0.59355250  0.83177549  0.00296017    -0.32790
C1995       C  0.57625230  0.86104010  0.00577065     0.36460
C1996       C  0.54620292  0.86102183  0.02549242    -0.05720
C1997       C  0.53347874  0.83134623  0.04121294    -0.32690
C1998       C  0.55042346  0.80232692  0.03840678     0.36370
H1999       H  0.61701507  0.83218412  0.98832242     0.16740
O2000       O  0.58989384  0.88971316  0.99082653    -0.60190
H2001       H  0.01043947  0.83069943  0.05659707     0.16750
O2002       O  0.53822301  0.77466586  0.05654506    -0.60280
H2003       H  0.01761961  0.76738910  0.04590202     0.43750
H2004       H  0.58269711  0.88963973  0.96774544     0.43700
C2005       C  0.68155086  0.73886999  0.04595679    -0.05360
C2006       C  0.70518000  0.71853468  0.03137544    -0.32790
C2007       C  0.73595597  0.71406133  0.04531138     0.36460
C2008       C  0.74357090  0.72970237  0.07466681    -0.05720
C2009       C  0.72011043  0.75027947  0.08913277    -0.32690
C2010       C  0.68929641  0.75486777  0.07509081     0.36370
H2011       H  0.69970521  0.70602685  0.00900240     0.16740
O2012       O  0.75862633  0.69468986  0.02972195    -0.60190
H2013       H  0.72554747  0.76252521  0.11165822     0.16750
O2014       O  0.66616911  0.77342904  0.09110767    -0.60280
H2015       H  0.67408785  0.79668416  0.08634943     0.43750
H2016       H  0.77336212  0.71018372  0.01536745     0.43700
C2017       C  0.59951203  0.77153829  0.01759136     0.03230
C2018       C  0.63281150  0.77094419  0.52689686    -0.12920
C2019       C  0.64797826  0.74066376  0.53222330     0.00730
C2020       C  0.62953657  0.71120193  0.52778294    -0.11440
C2021       C  0.59618092  0.71155059  0.01893277     0.03230
C2022       C  0.58205537  0.74176204  0.01215832    -0.10860
H2023       H  0.64620959  0.79381260  0.53164568     0.08820
H2024       H  0.64031810  0.68780102  0.53374213     0.06350
H2025       H  0.55614271  0.74211981  0.00599804     0.06200
C2026       C  0.82322643  0.69235285  0.60280701     0.03230
C2027       C  0.78979466  0.69530159  0.59462898    -0.12920
C2028       C  0.77678786  0.72642551  0.58885809     0.00730
C2029       C  0.79704633  0.75472399  0.59299742    -0.11440
C2030       C  0.83101600  0.75243600  0.59969624     0.03230
C2031       C  0.84375989  0.72106447  0.60480909    -0.10860
H2032       H  0.77417845  0.67332807  0.59162696     0.08820
H2033       H  0.78692703  0.77870946  0.58845095     0.06350
H2034       H  0.87022789  0.71882848  0.60771808     0.06200
C2035       C  0.67133962  0.94679519  0.70564818     0.03230
C2036       C  0.67629607  0.95735175  0.73781962    -0.12920
C2037       C  0.70870656  0.96449062  0.74792124     0.00730
C2038       C  0.73623168  0.96014197  0.72577840    -0.11440
C2039       C  0.73156654  0.94927268  0.69371687     0.03230
C2040       C  0.69913625  0.94219666  0.68404873    -0.10860
H2041       H  0.65489807  0.96151824  0.75441607     0.08820
H2042       H  0.76125535  0.96616392  0.73315709     0.06350
H2043       H  0.69545559  0.93474638  0.65901644     0.06200
C2044       C  0.75489530  0.53402971  0.92410895     0.03230
C2045       C  0.75369782  0.52506457  0.89088291    -0.12920
C2046       C  0.72269653  0.51938254  0.87692893     0.00730
C2047       C  0.69311700  0.52337899  0.89630597    -0.11440
C2048       C  0.69407986  0.53215737  0.92951997     0.03230
C2049       C  0.72497768  0.53885000  0.94263517    -0.10860
H2050       H  0.77650640  0.51960850  0.87697228     0.08820
H2051       H  0.66923395  0.51741357  0.88618987     0.06350
H2052       H  0.72584657  0.54394838  0.96869483     0.06200
C2053       C  0.51070686  0.62220109  0.77304830     0.03230
C2054       C  0.50315121  0.65544281  0.77602429    -0.12920
C2055       C  0.49911048  0.66890452  0.80738023     0.00730
C2056       C  0.50299783  0.64867800  0.83576483    -0.11440
C2057       C  0.50928726  0.61498378  0.83324428     0.03230
C2058       C  0.51409021  0.60217860  0.80170523    -0.10860
H2059       H  0.49865640  0.67033220  0.75396842     0.08820
H2060       H  0.49808308  0.65841263  0.86002730     0.06350
H2061       H  0.51691651  0.57594420  0.79941456     0.06200
C2062       C  0.92691792  0.84453166  0.85292291     0.03230
C2063       C  0.93709282  0.81181896  0.85175895    -0.12920
C2064       C  0.94192719  0.79699209  0.82103215     0.00730
C2065       C  0.93717885  0.81557051  0.79167107    -0.11440
C2066       C  0.92841116  0.84865500  0.79260065     0.03230
C2067       C  0.92149425  0.86213497  0.82325656    -0.10860
H2068       H  0.94268186  0.79849870  0.87441256     0.08820
H2069       H  0.94242598  0.80490154  0.76794024     0.06350
H2070       H  0.91496601  0.88772648  0.82405735     0.06200
O2071       O  0.52656860  0.91439823  0.51021564    -0.86380
O2072       O  0.93073305  0.96161778  0.66889215    -0.86550
O2073       O  0.53240983  0.93088570  0.62612133    -0.88220
O2074       O  0.94163982  0.87890096  0.59430518    -0.86970
O2075       O  0.89875603  0.89597368  0.56380119    -0.86570
O2076       O  0.55407350  0.98399281  0.61799401    -0.87940
O2077       O  0.96123698  0.91844781  0.65155679    -0.86410
O2078       O  0.51537766  0.89167294  0.56278899    -0.86000
Zr2079     Zr  0.98130255  0.92745673  0.59490228     2.84310
O2080       O  0.92794484  0.94824492  0.59737464    -1.07980
O2081       O  0.51783310  0.96242870  0.56089826    -1.08710
C2082       C  0.52862501  0.89133695  0.53305380     1.06720
C2083       C  0.94411357  0.93338387  0.67368268     1.06670
C2084       C  0.55395890  0.95457101  0.63122504     1.09650
C2085       C  0.91315983  0.87406679  0.58102563     1.07430
H2086       H  0.99128557  0.97870811  0.63906551     0.32990
O2087       O  0.98328326  0.97987940  0.61697076    -1.28930
H2088       H  0.96056385  0.90898447  0.53274594     0.32660
O2089       O  0.96154158  0.93071307  0.54156957    -1.30610
O2090       O  0.89906849  0.55146859  0.61692721    -0.86380
O2091       O  0.99707926  0.00529590  0.95909392    -0.87870
O2092       O  0.51400264  0.54484974  0.63413407    -0.86450
O2093       O  0.85825819  0.95049072  0.58168592    -0.86500
O2094       O  0.91263970  0.92313787  0.49192776    -0.86220
O2095       O  0.56925300  0.51596053  0.54382493    -0.86020
O2096       O  0.98449691  0.58786467  0.53339808    -0.86390
O2097       O  0.89437259  0.53697841  0.50211569    -0.85860
O2098       O  0.52802140  0.57178904  0.56384375    -0.86920
O2099       O  0.87251721  0.98405004  0.51051963    -0.86080
O2100       O  0.96036178  0.53505308  0.65598448    -0.86480
O2101       O  0.55418524  0.98633412  0.49956943    -0.86200
O2102       O  0.96628331  0.93384334  0.97059628    -0.85850
O2103       O  0.87264586  0.97760552  0.62801385    -0.86260
O2104       O  0.90962001  0.57426057  0.56418727    -0.86550
O2105       O  0.96593395  0.54828808  0.97563544    -0.87890
Zr2106     Zr  0.92958104  0.00022018  0.61996483     2.83100
Zr2107     Zr  0.99718823  0.96643694  0.50778776     2.83500
Zr2108     Zr  0.51915229  0.51500541  0.58259759     2.84090
Zr2109     Zr  0.90834987  0.95208767  0.54408330     2.83360
Zr2110     Zr  0.94563187  0.53941282  0.53257545     2.84220
O2111       O  0.94369991  0.98738210  0.50976265    -1.08460
O2112       O  0.96550199  0.53586610  0.58591096    -1.07960
C2113       C  0.89544724  0.57368276  0.59361693     1.06700
C2114       C  0.98376527  0.53349368  0.95390080     1.09310
C2115       C  0.98999831  0.54860712  0.65623370     1.06870
C2116       C  0.85215238  0.96065946  0.61120549     1.07230
C2117       C  0.93658144  0.92086945  0.96947248     1.06810
C2118       C  0.57527919  0.00373068  0.51502722     1.06360
C2119       C  0.51299382  0.59311146  0.54632763     1.06790
C2120       C  0.87182711  0.51388176  0.49851945     1.06300
H2121       H  0.51367147  0.53321647  0.51550925     0.32980
O2122       O  0.99900025  0.51863691  0.52967589    -1.29560
H2123       H  0.88719272  0.51216425  0.56751226     0.33000
O2124       O  0.90952970  0.00412096  0.56656382    -1.30940
C2125       C  0.94059130  0.91536262  0.70647281    -0.05360
C2126       C  0.96493887  0.89258278  0.71373173    -0.32790
C2127       C  0.96092978  0.87070514  0.74120092     0.36460
C2128       C  0.93194230  0.87091816  0.76239644    -0.05720
C2129       C  0.90838912  0.89499169  0.75646127    -0.32690
C2130       C  0.91286661  0.91752429  0.72906952     0.36370
H2131       H  0.98740500  0.89138495  0.69774305     0.16740
O2132       O  0.98641769  0.85039580  0.74805748    -0.60190
H2133       H  0.88644882  0.89634336  0.77311364     0.16750
O2134       O  0.88967443  0.94083023  0.72436957    -0.60280
H2135       H  0.89765790  0.96014616  0.73642855     0.43750
H2136       H  0.98621930  0.83367673  0.73084772     0.43700
C2137       C  0.92792016  0.86316007  0.88364951    -0.05360
C2138       C  0.94570335  0.89370976  0.88185921    -0.32870
C2139       C  0.94699042  0.91316628  0.90922495     0.36460
C2140       C  0.93078210  0.90213178  0.93969787    -0.05720
C2141       C  0.91251814  0.87173344  0.94175472    -0.32690
C2142       C  0.91121071  0.85208195  0.91391089     0.36370
H2143       H  0.95900243  0.90264506  0.85896546     0.16740
O2144       O  0.96369811  0.94343286  0.90574245    -0.60190
H2145       H  0.90015882  0.86279902  0.96510498     0.16750
O2146       O  0.89294662  0.82270139  0.91624115    -0.60280
H2147       H  0.90703510  0.80700331  0.92792736     0.43750
H2148       H  0.98778724  0.93874877  0.90530870     0.43700
C2149       C  0.99638403  0.57001899  0.68431395    -0.05360
C2150       C  0.52862910  0.57370379  0.69613648    -0.32790
C2151       C  0.53409803  0.59161777  0.72449258     0.36460
C2152       C  0.50728202  0.60652062  0.74102597    -0.05720
C2153       C  0.97554539  0.60417495  0.72839107    -0.32690
C2154       C  0.96984734  0.58596436  0.70056262     0.36370
H2155       H  0.54937963  0.56178340  0.68408465     0.16740
O2156       O  0.56548623  0.59384102  0.73625832    -0.60190
H2157       H  0.95472113  0.61559480  0.74092277     0.16750
O2158       O  0.93820562  0.58426040  0.68926080    -0.60280
H2159       H  0.92551905  0.56766147  0.70424397     0.43750
H2160       H  0.57592656  0.61457077  0.72584646     0.43700
C2161       C  0.98934151  0.55151095  0.92112227    -0.05360
C2162       C  0.51822464  0.54732064  0.90061553    -0.32790
C2163       C  0.52523349  0.56746424  0.87161218     0.36460
C2164       C  0.50337460  0.59239005  0.86306129    -0.05720
C2165       C  0.97397012  0.59542905  0.88278033    -0.32690
C2166       C  0.96687810  0.57556650  0.91138404     0.36370
H2167       H  0.53592608  0.52920935  0.90759258     0.16740
O2168       O  0.55421553  0.56374216  0.85279831    -0.60190
H2169       H  0.95609414  0.61344112  0.87593785     0.16750
O2170       O  0.93740506  0.57961001  0.92935686    -0.60280
H2171       H  0.94114843  0.59992917  0.94170921     0.43750
H2172       H  0.55017028  0.54351397  0.84041320     0.43700
C2173       C  0.98528383  0.70209308  0.81081102    -0.05360
C2174       C  0.95585898  0.70938905  0.79523230    -0.32790
C2175       C  0.94112114  0.73977574  0.79903497     0.36460
C2176       C  0.95566825  0.76361852  0.81883025    -0.05720
C2177       C  0.98499074  0.75626818  0.83466042    -0.32690
C2178       C  0.99972646  0.72576749  0.83087251     0.36370
H2179       H  0.94386756  0.69117826  0.78043879     0.16740
O2180       O  0.91175458  0.74551658  0.78433243    -0.60190
H2181       H  0.99695804  0.77452632  0.84940857     0.16750
O2182       O  0.52899551  0.71985253  0.84566537    -0.60280
H2183       H  0.52258063  0.71568913  0.86956325     0.43750
H2184       H  0.91784302  0.74839143  0.76023896     0.43700
C2185       C  0.66410417  0.52610702  0.95244984    -0.05360
C2186       C  0.64717331  0.49533746  0.95214214    -0.32790
C2187       C  0.61956675  0.98734887  0.97371056     0.36460
C2188       C  0.60807760  0.51022078  0.99668139    -0.05720
C2189       C  0.62576678  0.54074140  0.49805325    -0.32690
C2190       C  0.65381227  0.54866370  0.97622625     0.36370
H2191       H  0.65554382  0.97706772  0.93510784     0.16740
O2192       O  0.60406210  0.95674663  0.97228417    -0.60190
H2193       H  0.61711387  0.55888249  0.51506918     0.16750
O2194       O  0.66994230  0.57902583  0.97717557    -0.60280
H2195       H  0.68272554  0.57807856  0.49748195     0.43750
H2196       H  0.59132951  0.95768781  0.95191810     0.43700
C2197       C  0.84213125  0.52135451  0.97994778    -0.05360
C2198       C  0.84437010  0.54276563  0.95156720    -0.32790
C2199       C  0.81634155  0.54716245  0.93257816     0.36460
C2200       C  0.78566710  0.53048353  0.94238799    -0.05720
C2201       C  0.78364923  0.50951024  0.97092472    -0.32690
C2202       C  0.81116741  0.50523048  0.48976090     0.36370
H2203       H  0.86795104  0.55540316  0.94368302     0.16740
O2204       O  0.81890135  0.56830978  0.90514128    -0.60190
H2205       H  0.76040899  0.49614456  0.97873514     0.16750
O2206       O  0.80725330  0.98528986  0.51814173    -0.60280
H2207       H  0.79501752  0.99833047  0.53449569     0.43750
H2208       H  0.82974379  0.55572012  0.88733717     0.43700
C2209       C  0.63767313  0.94579177  0.69224615    -0.05360
C2210       C  0.62615275  0.91817816  0.67549170    -0.32790
C2211       C  0.59754074  0.91961330  0.65696394     0.36460
C2212       C  0.58045012  0.94912726  0.65471117    -0.05720
C2213       C  0.59094404  0.97588620  0.67316565    -0.32690
C2214       C  0.61914661  0.97441412  0.69176239     0.36370
H2215       H  0.64021617  0.89598273  0.67562622     0.16740
O2216       O  0.58770900  0.89279299  0.63979275    -0.60190
H2217       H  0.57796089  0.99875243  0.67210753     0.16750
O2218       O  0.63026509  0.00225726  0.70664424    -0.60280
H2219       H  0.61576556  0.50306375  0.72751684     0.43750
H2220       H  0.59987699  0.89569654  0.61777192     0.43700
C2221       C  0.76050644  0.94812899  0.66951062    -0.05360
C2222       C  0.78792859  0.92964835  0.67750720    -0.32790
C2223       C  0.81711509  0.93141901  0.65684879     0.36460
C2224       C  0.81936645  0.95228582  0.62805118    -0.05720
C2225       C  0.79143397  0.96934912  0.61901520    -0.32690
C2226       C  0.76194100  0.96714900  0.63938979     0.36370
H2227       H  0.78693249  0.91440329  0.70021355     0.16740
O2228       O  0.84341636  0.91278794  0.66508671    -0.60190
H2229       H  0.79309530  0.98583033  0.59717053     0.16750
O2230       O  0.73571687  0.98587387  0.63111980    -0.60280
H2231       H  0.72455290  0.97374031  0.61370242     0.43750
H2232       H  0.85989792  0.92842215  0.67394040     0.43700
C2233       C  0.71360386  0.97828139  0.78089563    -0.05360
C2234       C  0.70051121  0.96087611  0.80971147    -0.32790
C2235       C  0.70418983  0.97369809  0.84101646     0.36460
C2236       C  0.72070558  0.50472840  0.84397251    -0.05720
C2237       C  0.73427337  0.52197138  0.81523379    -0.32690
C2238       C  0.73060650  0.50910232  0.78384405     0.36370
H2239       H  0.68754618  0.93713072  0.80791894     0.16740
O2240       O  0.69151313  0.95569051  0.86866283    -0.60190
H2241       H  0.74692675  0.54585914  0.81708413     0.16750
O2242       O  0.74293529  0.52722260  0.75614340    -0.60280
H2243       H  0.72383241  0.53970578  0.74855445     0.43750
H2244       H  0.71068129  0.94380075  0.87698687     0.43700
C2245       C  0.83813479  0.65947975  0.60407616    -0.05360
C2246       C  0.83276005  0.63810833  0.57828738    -0.32790
C2247       C  0.84980291  0.60897554  0.57609977     0.36460
C2248       C  0.87280924  0.60064666  0.59987055    -0.05720
C2249       C  0.87660742  0.62066445  0.62695772    -0.32690
C2250       C  0.85964431  0.65016119  0.62902938     0.36370
H2251       H  0.81647704  0.64475294  0.55878754     0.16740
O2252       O  0.84490866  0.58944677  0.54971668    -0.60190
H2253       H  0.89405721  0.61440588  0.64550487     0.16750
O2254       O  0.86416720  0.66972388  0.65544198    -0.60280
H2255       H  0.88719551  0.67957110  0.65190769     0.43750
H2256       H  0.82857048  0.57171008  0.55828075     0.43700
C2257       C  0.85377194  0.78252426  0.59554359    -0.05360
C2258       C  0.84918719  0.80465789  0.56888830    -0.32790
C2259       C  0.86857152  0.83376219  0.56381655     0.36460
C2260       C  0.89439037  0.84150471  0.58521253    -0.05720
C2261       C  0.90010124  0.81875519  0.61128947    -0.32690
C2262       C  0.88004444  0.78939990  0.61653833     0.36370
H2263       H  0.83027655  0.79943499  0.55145795     0.16740
O2264       O  0.86216795  0.85419140  0.53720590    -0.60190
H2265       H  0.91946887  0.82409611  0.62818589     0.16750
O2266       O  0.88525689  0.76852936  0.64312508    -0.60280
H2267       H  0.90637623  0.75775678  0.63720666     0.43750
H2268       H  0.84215883  0.86617612  0.54443125     0.43700
C2269       C  0.57411939  0.68149345  0.52473867    -0.05360
C2270       C  0.57482874  0.66429984  0.55543140    -0.32790
C2271       C  0.55390750  0.63657218  0.56320557     0.36460
C2272       C  0.53130538  0.62533284  0.54013315    -0.05720
C2273       C  0.52961972  0.64313346  0.50973168    -0.32690
C2274       C  0.55074903  0.67122090  0.50200298     0.36370
H2275       H  0.59155659  0.67263192  0.57384104     0.16740
O2276       O  0.55532768  0.62095524  0.59385117    -0.60190
H2277       H  0.01280083  0.63463923  0.49148542     0.16750
O2278       O  0.54951631  0.68745188  0.97167927    -0.60280
H2279       H  0.02830500  0.69916427  0.97273651     0.43750
H2280       H  0.57599653  0.60836696  0.59258597     0.43700
C2281       C  0.58086358  0.80227258  0.51922546    -0.05360
C2282       C  0.59357043  0.83179782  0.50295596    -0.32790
C2283       C  0.57627332  0.86106463  0.50576435     0.36460
C2284       C  0.54622207  0.86104941  0.52548264    -0.05720
C2285       C  0.53349192  0.83137461  0.54120010    -0.32690
C2286       C  0.55043356  0.80235337  0.53839644     0.36370
H2287       H  0.61703490  0.83220416  0.48832161     0.16740
O2288       O  0.58991984  0.88973668  0.49082246    -0.60190
H2289       H  0.01045079  0.83073025  0.55658124     0.16750
O2290       O  0.53822765  0.77469379  0.55653384    -0.60280
H2291       H  0.01762482  0.76741956  0.54588846     0.43750
H2292       H  0.58272512  0.88966539  0.46774059     0.43700
C2293       C  0.68156099  0.73889128  0.54596164    -0.05360
C2294       C  0.70518663  0.71855112  0.53138207    -0.32790
C2295       C  0.73596588  0.71408147  0.54531287     0.36460
C2296       C  0.74358815  0.72973129  0.57466155    -0.05720
C2297       C  0.72013128  0.75031352  0.58912551    -0.32690
C2298       C  0.68931384  0.75489808  0.57508860     0.36370
H2299       H  0.69970676  0.70603682  0.50901409     0.16740
O2300       O  0.75863204  0.69470445  0.52972503    -0.60190
H2301       H  0.72557341  0.76256561  0.61164607     0.16750
O2302       O  0.66619053  0.77346480  0.59110415    -0.60280
H2303       H  0.67411033  0.79671864  0.58633925     0.43750
H2304       H  0.77336589  0.71019387  0.51536362     0.43700
loop_ 
_geom_bond_atom_site_label_1 
_geom_bond_atom_site_label_2 
_geom_bond_distance 
_geom_bond_site_symmetry_2 
_ccdc_geom_bond_type 
C1            C6   1.403       .  A
C1          C290   1.408       .  A
C1          C553   1.484       .  S
C2            C3   1.409       .  A
C2          C289   1.408       .  A
C2            H7   1.083       .  S
C3            C4   1.404       .  A
C3          C277   1.488       .  S
C4          C293   1.404       .  A
C4            H8   1.084       .  S
C5            C6   1.396       .  A
C5          C292   1.404       .  A
C5          C541   1.482       .  S
C6            H9   1.083       .  S
C10          C11   1.408       .  A
C10          C15   1.407       .  A
C10         C229   1.486       .  S
C11          C12   1.403       .  A
C11          H16   1.084       .  S
C12          C13   1.401       .  A
C12         C280   1.488       .  S
C13          C14   1.410       .  A
C13          H17   1.084       .  S
C14          C15   1.404       .  A
C14         C241   1.493       .  S
C15          H18   1.082       .  S
C19          C20   1.408       .  A
C19          C24   1.402       .  A
C19         C193   1.482       .  S
C20          C21   1.406       .  A
C20          H25   1.084       .  S
C21          C22   1.405       .  A
C21         C217   1.487       .  S
C22          C23   1.406       .  A
C22          H26   1.084       .  S
C23          C24   1.401       .  A
C23         C205   1.481       .  S
C24          H27   1.084       .  S
C28          C29   1.409       .  A
C28          C33   1.405       .  A
C28         C184   1.482       .  S
C29          C30   1.408       .  A
C29          H34   1.083       .  S
C30          C31   1.405       .  A
C30         C220   1.486       .  S
C31          C32   1.405       .  A
C31          H35   1.084       .  S
C32          C33   1.395       .  A
C32         C169   1.483       .  S
C33          H36   1.084       .  S
C37          C38   1.405       .  A
C37          C42   1.404       .  A
C37         C136   1.476       .  S
C38          C39   1.405   1_455  A
C38          H43   1.084   1_455  S
C39          C40   1.403   1_655  A
C39        C1309   1.488       .  S
C40          C41   1.409       .  A
C40          H44   1.084   1_455  S
C41          C42   1.403       .  A
C41         C148   1.487       .  S
C42          H45   1.084       .  S
C46          C47   1.408       .  A
C46          C51   1.403       .  A
C46         C121   1.482       .  S
C47          C48   1.410       .  A
C47          H52   1.083       .  S
C48          C49   1.406       .  A
C48         C160   1.489       .  S
C49          C50   1.405       .  A
C49          H53   1.083       .  S
C50          C51   1.394       .  A
C50         C112   1.486       .  S
C51          H54   1.084       .  S
O55          C66   1.296       .  A
O55       Zr1243   2.464   1_455  S
O56          C67   1.298       .  A
O56         Zr90   2.476       .  S
O57          C68   1.297       .  A
O57       Zr1215   2.467   1_455  S
O58          C69   1.300       .  A
O58         Zr63   2.484       .  S
O59          C69   1.283       .  A
O59         Zr93   2.392       .  S
O60          C68   1.289       .  A
O60        Zr668   2.412       .  S
O61          C67   1.286       .  A
O61         Zr63   2.394       .  S
O62          C66   1.288       .  A
O62       Zr1215   2.407   1_455  S
Zr63       O1209   2.467       .  S
Zr63       O1214   2.407       .  S
Zr63         O64   2.333       .  S
Zr63         O73   2.338       .  S
Zr63         O71   2.342       .  S
Zr63       O1217   2.345       .  S
O64         Zr90   2.335       .  S
O64         Zr93   2.334       .  S
O65       Zr1215   2.345   1_455  S
O65       Zr1243   2.345   1_455  S
O65        Zr668   2.342       .  S
C66         C268   1.479       .  S
C67         C109   1.484       .  S
C68         C196   1.480       .  S
C69         C244   1.493       .  S
H70          O71   0.965       .  S
O71         Zr90   2.338       .  S
O71       Zr1820   2.342       .  S
H72          O73   0.966       .  S
O73         Zr91   2.338       .  S
O73         Zr93   2.336       .  S
O74          C97   1.296       .  A
O74        Zr666   2.461       .  S
O75         C674   1.298       .  A
O75        Zr379   2.473       .  S
O76        C1251   1.296   1_455  A
O76         Zr92   2.456       .  S
O77         C100   1.293       .  A
O77         Zr93   2.450       .  S
O78         C389   1.294       .  A
O78         Zr93   2.457   1_556  S
O79         C678   1.299       .  A
O79         Zr92   2.478       .  S
O80        C1255   1.296       .  A
O80         Zr94   2.462       .  S
O81         C104   1.294   1_554  A
O81         Zr94   2.454       .  S
O82         C103   1.286       .  A
O82         Zr92   2.404       .  S
O83         C680   1.288   1_554  A
O83         Zr93   2.412       .  S
O84          C99   1.290       .  A
O84        Zr666   2.423       .  S
O85         C102   1.285   1_556  A
O85       Zr1243   2.394   1_456  S
O86         C101   1.287       .  A
O86        Zr379   2.403       .  S
O87         C100   1.290       .  A
O87         Zr90   2.426       .  S
O88          C97   1.289       .  A
O88         Zr94   2.417       .  S
O89          C98   1.287       .  A
O89        Zr382   2.407       .  S
Zr90        O650   2.461       .  S
Zr90        O660   2.423       .  S
Zr90        O108   2.346       .  S
Zr90        O672   2.348       .  S
Zr91       O1207   2.464       .  S
Zr91        O363   2.473   1_554  S
Zr91       O1237   2.394   1_554  S
Zr91        O374   2.403   1_554  S
Zr91         O95   2.340       .  S
Zr91       O1217   2.345       .  S
Zr91        O682   2.331       .  S
Zr92        O636   2.412   1_545  S
Zr92        O641   2.342   1_545  S
Zr92       O1799   2.342   1_445  S
Zr92       O1248   2.345   1_455  S
Zr92       O1258   2.329   1_455  S
Zr93         O95   2.333       .  S
Zr93        O108   2.335       .  S
Zr94        O377   2.407   1_554  S
Zr94         O96   2.340       .  S
Zr94        O106   2.333       .  S
Zr94        O671   2.341   1_545  S
Zr94        O684   2.343       .  S
O95        Zr670   2.341       .  S
O96        Zr666   2.348       .  S
O96       Zr1244   2.345       .  S
C97         C232   1.473       .  S
C98         C145   1.488       .  S
C98         O651   1.298       .  A
C99         C133   1.485       .  S
C99        O1228   1.296       .  A
C100        C208   1.468       .  S
C101        C124   1.474       .  S
C101        O366   1.294       .  A
C102       C1036   1.484   1_554  S
C102        O655   1.299       .  A
C103        C256   1.479       .  S
C103       O1232   1.296   1_455  A
C104        C469   1.478       .  S
C104        O659   1.288   1_546  A
H105       O1258   0.965   1_455  S
O106       Zr667   2.331   1_545  S
O106      Zr1244   2.329       .  S
O106       H1257   0.965       .  S
H107        O684   0.966       .  S
O108       Zr670   2.343       .  S
O108        H683   0.966       .  S
C109        C110   1.407       .  A
C109        C114   1.408       .  A
C110        C111   1.391       .  A
C110        H115   1.084       .  S
C111        C112   1.407       .  A
C111        O116   1.373       .  S
C112        C113   1.410       .  A
C113        C114   1.406       .  A
C113        H117   1.083       .  S
C114        O118   1.370       .  S
O116        H120   0.992       .  S
O118        H119   0.992       .  S
C121        C122   1.403       .  A
C121        C126   1.410       .  A
C122        C123   1.388       .  A
C122        H127   1.084       .  S
C123        C124   1.408       .  A
C123        O128   1.374       .  S
C124        C125   1.406       .  A
C125        C126   1.408       .  A
C125        H129   1.084       .  S
C126        O130   1.371       .  S
O128        H132   0.992       .  S
O130        H131   0.992       .  S
C133        C138   1.415       .  A
C133       C1286   1.408       .  A
C134        C135   1.405       .  A
C134       C1285   1.408   1_455  A
C134        H139   1.083       .  S
C135        C136   1.407       .  A
C135        O140   1.371       .  S
C136       C1289   1.399   1_455  A
C137        C138   1.395       .  A
C137       C1288   1.399       .  A
C137        H141   1.084       .  S
C138        O142   1.372       .  S
O140        H144   0.992       .  S
O142        H143   0.992       .  S
C145        C150   1.415       .  A
C145       C1298   1.408       .  A
C146        C147   1.410       .  A
C146       C1297   1.408   1_455  A
C146        H151   1.083       .  S
C147        C148   1.411       .  A
C147        O152   1.371       .  S
C148       C1301   1.400   1_455  A
C149        C150   1.392       .  A
C149       C1300   1.400       .  A
C149        H153   1.084       .  S
C150        O154   1.373       .  S
O152        H156   0.992       .  S
O154        H155   0.992       .  S
C157        C158   1.405       .  A
C157        C162   1.410       .  A
C157       C1191   1.488       .  S
C158        C159   1.401       .  A
C158        H163   1.084       .  S
C159        C160   1.409       .  A
C159        O164   1.372       .  S
C160        C161   1.407       .  A
C161        C162   1.405       .  A
C161        H165   1.083       .  S
C162       O1318   1.372       .  S
O164        H168   0.992       .  S
O166       C1314   1.372   1_455  S
O166        H167   0.992       .  S
C169        C170   1.398   1_545  A
C169        C174   1.412       .  A
C170        C747   1.390       .  A
C170        H751   1.084       .  S
C171        C746   1.390       .  A
C171        C748   1.414       .  A
C171        O176   1.371       .  S
C172        C747   1.414   1_545  A
C172        C461   1.406       .  A
C172        C966   1.484       .  S
C173        C460   1.406       .  A
C173        C462   1.410       .  A
C173        H177   1.083   1_556  S
C174        C461   1.410       .  A
C174        O178   1.372       .  S
H175        C746   1.084       .  S
O176        H180   0.992       .  S
O178        H467   0.992       .  S
H179        O466   0.992       .  S
C181        C182   1.408       .  A
C181        C474   1.410       .  A
C181        C392   1.478       .  S
C182        C183   1.409       .  A
C182        H187   1.083       .  S
C183        C184   1.409       .  A
C183        O188   1.371       .  S
C184        C185   1.401       .  A
C185        C474   1.388       .  A
C185        H189   1.084   1_545  S
C186        C469   1.410       .  A
C186        C473   1.388       .  A
C186        O766   1.373   1_546  S
O188        H192   0.992       .  S
O190        C762   1.373   1_554  S
O190        H191   0.992       .  S
C193        C194   1.409       .  A
C193        C198   1.406       .  A
C194        C195   1.406       .  A
C194        H199   1.083       .  S
C195        C196   1.408       .  A
C195        O200   1.371       .  S
C196        C197   1.406       .  A
C197        C198   1.394       .  A
C197        H201   1.084       .  S
C198        O202   1.372       .  S
O200        H204   0.992       .  S
O202        H779   0.992       .  S
H203        O778   0.992       .  S
C205        C206   1.402       .  A
C205        C210   1.412       .  A
C206        C207   1.398       .  A
C206        H211   1.084       .  S
C207        C208   1.408       .  A
C207        O212   1.372       .  S
C208        C209   1.399       .  A
C209        C210   1.402       .  A
C209        H213   1.083       .  S
C210        O214   1.372       .  S
O212        H216   0.989       .  S
O214        H215   0.992       .  S
C217        C218   1.402       .  A
C217        C798   1.412       .  A
C218        C219   1.401       .  A
C218        H223   1.084       .  S
C219        C796   1.412       .  A
C219        O224   1.372       .  S
C220        C221   1.403       .  A
C220        C795   1.412   1_545  A
C221        C222   1.405       .  A
C221        H225   1.083       .  S
C222        C793   1.412   1_545  A
C222        O226   1.372       .  S
O224        H228   0.992       .  S
O226        H227   0.992       .  S
C229        C230   1.404       .  A
C229        C234   1.413       .  A
C230        C231   1.395       .  A
C230        H235   1.084       .  S
C231        C232   1.409       .  A
C231        O236   1.373       .  S
C232        C233   1.402       .  A
C233        C234   1.406       .  A
C233        H237   1.083       .  S
C234        O238   1.372       .  S
O236        H240   0.992       .  S
O238        H239   0.992       .  S
C241        C242   1.399       .  A
C241        C246   1.415       .  A
C242        C243   1.389       .  A
C242        H247   1.084       .  S
C243        C244   1.419       .  A
C243        O248   1.373       .  S
C244        C245   1.408       .  A
C245        C246   1.412       .  A
C245        H249   1.083       .  S
C246        O250   1.372       .  S
O248        H252   0.993       .  S
O250        H251   0.992       .  S
C253        C254   1.401       .  A
C253        C258   1.411       .  A
C253        C293   1.482       .  S
C254        C255   1.391       .  A
C254        H259   1.084       .  S
C255        C256   1.412       .  A
C255        O260   1.373       .  S
C256        C257   1.406       .  A
C257        C258   1.407       .  A
C257       H1413   1.084   1_554  S
C258        O550   1.372   1_554  S
O260        H264   0.992       .  S
H261       C1409   1.084   1_556  S
O262        C546   1.372       .  S
O262       H1415   0.992       .  S
H263       O1414   0.992       .  S
C265        C266   1.406       .  A
C265        C270   1.410       .  A
C265        C289   1.484       .  S
C266        C267   1.407       .  A
C266        H271   1.083   1_554  S
C267        C268   1.409       .  A
C267        O272   1.369   1_554  S
C268        C269   1.403       .  A
C269        C270   1.391       .  A
C269       H1425   1.084       .  S
C270        O274   1.374       .  S
O272        H276   0.992       .  S
H273       C1421   1.084       .  S
O274       H1427   0.992       .  S
H275       O1426   0.992       .  S
C277        C278   1.405       .  A
C277        C282   1.411       .  A
C278        C279   1.400       .  A
C278        H283   1.084       .  S
C279        C280   1.411       .  A
C279        O284   1.372       .  S
C280        C281   1.405       .  A
C281        C282   1.404       .  A
C281        H285   1.083       .  S
C282        O286   1.372       .  S
O284        H288   0.992       .  S
O286        H287   0.992       .  S
C289        C294   1.403       .  A
C290        C291   1.409       .  A
C290        H295   1.083       .  S
C291        C292   1.404       .  A
C291        C565   1.488       .  S
C292        H296   1.084       .  S
C293        C294   1.396       .  A
C294        H297   1.083       .  S
C298        C299   1.408       .  A
C298        C303   1.407       .  A
C298        C517   1.486       .  S
C299        C300   1.403       .  A
C299        H304   1.084       .  S
C300        C301   1.401       .  A
C300        C568   1.488       .  S
C301        C302   1.410       .  A
C301        H305   1.084       .  S
C302        C303   1.404       .  A
C302        C529   1.493       .  S
C303        H306   1.082       .  S
C307        C308   1.408       .  A
C307        C312   1.402       .  A
C307        C481   1.482       .  S
C308        C309   1.406       .  A
C308        H313   1.084       .  S
C309        C310   1.405       .  A
C309        C505   1.487       .  S
C310        C311   1.406       .  A
C310        H314   1.084       .  S
C311        C312   1.401       .  A
C311        C493   1.481       .  S
C312        H315   1.084       .  S
C316        C317   1.409       .  A
C316        C321   1.405       .  A
C316        C472   1.482       .  S
C317        C318   1.408       .  A
C317        H322   1.083       .  S
C318        C319   1.405       .  A
C318        C508   1.486       .  S
C319        C320   1.405       .  A
C319        H323   1.084       .  S
C320        C321   1.395       .  A
C320        C457   1.483       .  S
C321        H324   1.084       .  S
C325        C326   1.405       .  A
C325        C330   1.404       .  A
C325        C424   1.476       .  S
C326        C327   1.405   1_455  A
C326        H331   1.084   1_455  S
C327        C328   1.403   1_655  A
C327       C1597   1.488       .  S
C328        C329   1.409       .  A
C328        H332   1.084   1_455  S
C329        C330   1.403       .  A
C329        C436   1.487       .  S
C330        H333   1.084       .  S
C334        C335   1.408       .  A
C334        C339   1.403       .  A
C334        C409   1.482       .  S
C335        C336   1.410       .  A
C335        H340   1.083       .  S
C336        C337   1.406       .  A
C336        C448   1.489       .  S
C337        C338   1.405       .  A
C337        H341   1.083       .  S
C338        C339   1.394       .  A
C338        C400   1.486       .  S
C339        H342   1.084       .  S
O343        C354   1.296       .  A
O343      Zr1531   2.464   1_455  S
O344        C355   1.298       .  A
O344       Zr378   2.476       .  S
O345        C356   1.297       .  A
O345      Zr1503   2.467   1_455  S
O346        C357   1.300       .  A
O346       Zr351   2.484       .  S
O347        C357   1.283       .  A
O347       Zr381   2.392       .  S
O348        C356   1.289       .  A
O348       Zr956   2.412       .  S
O349        C355   1.285       .  A
O349       Zr351   2.394       .  S
O350        C354   1.288       .  A
O350      Zr1503   2.407   1_455  S
Zr351      O1497   2.467       .  S
Zr351      O1502   2.407       .  S
Zr351       O352   2.333       .  S
Zr351      O1505   2.345       .  S
Zr351       O361   2.338       .  S
Zr351       O359   2.342       .  S
O352       Zr378   2.335       .  S
O352       Zr381   2.334       .  S
O353      Zr1503   2.345   1_455  S
O353      Zr1531   2.345   1_455  S
O353       Zr956   2.342       .  S
C354        C556   1.479       .  S
C355        C397   1.484       .  S
C356        C484   1.480       .  S
C357        C532   1.493       .  S
H358        O359   0.965       .  S
O359       Zr378   2.338       .  S
O359      Zr2108   2.342       .  S
H360        O361   0.966       .  S
O361       Zr379   2.338       .  S
O361       Zr381   2.336       .  S
O362        C385   1.296       .  A
O362       Zr954   2.461       .  S
O363        C962   1.298       .  A
O364       C1539   1.296   1_455  A
O364       Zr380   2.456       .  S
O365        C388   1.293       .  A
O365       Zr381   2.450       .  S
O366       Zr381   2.457       .  S
O367        C966   1.299       .  A
O367       Zr380   2.478       .  S
O368       C1543   1.296       .  A
O368       Zr382   2.462       .  S
O369        C392   1.294       .  A
O369       Zr382   2.455       .  S
O370        C391   1.286       .  A
O370       Zr380   2.404       .  S
O371        C968   1.288       .  A
O371       Zr381   2.412       .  S
O372        C387   1.290       .  A
O372       Zr954   2.422       .  S
O373        C390   1.285       .  A
O373      Zr1531   2.394   1_455  S
O374        C389   1.287       .  A
O375        C388   1.290       .  A
O375       Zr378   2.426       .  S
O376        C385   1.289       .  A
O376       Zr382   2.417       .  S
O377        C386   1.287       .  A
Zr378       O938   2.461       .  S
Zr378       O948   2.423       .  S
Zr378       O960   2.348       .  S
Zr378       O396   2.346       .  S
Zr379      O1495   2.464       .  S
Zr379      O1525   2.394       .  S
Zr379      O1505   2.345       .  S
Zr379       O383   2.340       .  S
Zr379       O970   2.331       .  S
Zr380       O924   2.411   1_545  S
Zr380       O929   2.342   1_545  S
Zr380      O2087   2.342   1_445  S
Zr380      O1536   2.345   1_455  S
Zr380      O1546   2.329   1_455  S
Zr381       O383   2.333       .  S
Zr381       O396   2.335       .  S
Zr382       O959   2.341   1_545  S
Zr382       O384   2.340       .  S
Zr382       O972   2.343       .  S
Zr382       O394   2.333       .  S
O383       Zr958   2.341       .  S
O384       Zr954   2.348       .  S
O384      Zr1532   2.345       .  S
C385        C520   1.473       .  S
C386        C433   1.488       .  S
C386        O939   1.298       .  A
C387        C421   1.485       .  S
C387       O1516   1.296       .  A
C388        C496   1.468       .  S
C389        C412   1.474       .  S
C390        C748   1.484       .  S
C390        O943   1.299       .  A
C391        C544   1.479       .  S
C391       O1520   1.296   1_455  A
C392        O947   1.288   1_545  A
H393       O1546   0.965   1_455  S
O394       Zr955   2.331   1_545  S
O394      Zr1532   2.329       .  S
O394       H1545   0.965       .  S
H395        O972   0.966       .  S
O396       Zr958   2.343       .  S
O396        H971   0.966       .  S
C397        C398   1.407       .  A
C397        C402   1.408       .  A
C398        C399   1.391       .  A
C398        H403   1.084       .  S
C399        C400   1.407       .  A
C399        O404   1.373       .  S
C400        C401   1.410       .  A
C401        C402   1.406       .  A
C401        H405   1.083       .  S
C402        O406   1.370       .  S
O404        H408   0.992       .  S
O406        H407   0.992       .  S
C409        C410   1.403       .  A
C409        C414   1.410       .  A
C410        C411   1.388       .  A
C410        H415   1.084       .  S
C411        C412   1.408       .  A
C411        O416   1.374       .  S
C412        C413   1.406       .  A
C413        C414   1.408       .  A
C413        H417   1.084       .  S
C414        O418   1.371       .  S
O416        H420   0.992       .  S
O418        H419   0.992       .  S
C421       C1574   1.408       .  A
C421        C426   1.415       .  A
C422       C1573   1.408   1_455  A
C422        C423   1.405       .  A
C422        H427   1.083       .  S
C423        C424   1.407       .  A
C423        O428   1.371       .  S
C424       C1577   1.399   1_455  A
C425       C1576   1.399       .  A
C425        C426   1.395       .  A
C425        H429   1.084       .  S
C426        O430   1.372       .  S
O428        H432   0.992       .  S
O430        H431   0.992       .  S
C433       C1586   1.408       .  A
C433        C438   1.415       .  A
C434       C1585   1.408   1_455  A
C434        C435   1.410       .  A
C434        H439   1.083       .  S
C435        C436   1.411       .  A
C435        O440   1.371       .  S
C436       C1589   1.400   1_455  A
C437       C1588   1.400       .  A
C437        C438   1.392       .  A
C437        H441   1.084       .  S
C438        O442   1.373       .  S
O440        H444   0.992       .  S
O442        H443   0.992       .  S
C445        C446   1.405       .  A
C445        C450   1.410       .  A
C445       C1479   1.488       .  S
C446        C447   1.401       .  A
C446        H451   1.084       .  S
C447        C448   1.409       .  A
C447        O452   1.372       .  S
C448        C449   1.407       .  A
C449        C450   1.405       .  A
C449        H453   1.083       .  S
C450       O1606   1.372       .  S
O452        H456   0.992       .  S
O454       C1602   1.372   1_455  S
O454        H455   0.992       .  S
C457        C458   1.398   1_545  A
C457        C462   1.412       .  A
C458       C1035   1.390       .  A
C458       H1039   1.084       .  S
C459       C1034   1.390       .  A
C459       C1036   1.414       .  A
C459        O464   1.371       .  S
C460       C1035   1.414   1_545  A
C460        C678   1.484   1_556  S
C461        H465   1.083       .  S
C462        O466   1.372       .  S
H463       C1034   1.084       .  S
O464        H468   0.992       .  S
C469        C470   1.407       .  A
C470        C471   1.409       .  A
C470        H475   1.083       .  S
C471        C472   1.409       .  A
C471        O476   1.371       .  S
C472        C473   1.402       .  A
C473        H477   1.084   1_545  S
C474       O1054   1.374   1_545  S
O476        H480   0.992       .  S
O478       C1050   1.373       .  S
O478        H479   0.992       .  S
C481        C482   1.409       .  A
C481        C486   1.406       .  A
C482        C483   1.406       .  A
C482        H487   1.083       .  S
C483        C484   1.408       .  A
C483        O488   1.371       .  S
C484        C485   1.406       .  A
C485        C486   1.394       .  A
C485        H489   1.084       .  S
C486        O490   1.372       .  S
O488        H492   0.992       .  S
O490       H1067   0.992       .  S
H491       O1066   0.992       .  S
C493        C494   1.402       .  A
C493        C498   1.412       .  A
C494        C495   1.398       .  A
C494        H499   1.084       .  S
C495        C496   1.408       .  A
C495        O500   1.372       .  S
C496        C497   1.399       .  A
C497        C498   1.402       .  A
C497        H501   1.083       .  S
C498        O502   1.372       .  S
O500        H504   0.989       .  S
O502        H503   0.992       .  S
C505        C506   1.402       .  A
C505       C1086   1.412       .  A
C506        C507   1.401       .  A
C506        H511   1.084       .  S
C507       C1084   1.412       .  A
C507        O512   1.372       .  S
C508       C1083   1.412   1_545  A
C508        C509   1.403       .  A
C509        C510   1.405       .  A
C509        H513   1.083       .  S
C510       C1081   1.412   1_545  A
C510        O514   1.372       .  S
O512        H516   0.992       .  S
O514        H515   0.992       .  S
C517        C518   1.404       .  A
C517        C522   1.413       .  A
C518        C519   1.395       .  A
C518        H523   1.084       .  S
C519        C520   1.409       .  A
C519        O524   1.373       .  S
C520        C521   1.402       .  A
C521        C522   1.406       .  A
C521        H525   1.083       .  S
C522        O526   1.372       .  S
O524        H528   0.992       .  S
O526        H527   0.992       .  S
C529        C530   1.399       .  A
C529        C534   1.415       .  A
C530        C531   1.389       .  A
C530        H535   1.084       .  S
C531        C532   1.419       .  A
C531        O536   1.373       .  S
C532        C533   1.408       .  A
C533        C534   1.412       .  A
C533        H537   1.083       .  S
C534        O538   1.372       .  S
O536        H540   0.993       .  S
O538        H539   0.992       .  S
C541        C542   1.401       .  A
C541        C546   1.411       .  A
C542        C543   1.391       .  A
C542        H547   1.084       .  S
C543        C544   1.412       .  A
C543        O548   1.373       .  S
C544        C545   1.406       .  A
C545        C546   1.407       .  A
C545       H1701   1.084       .  S
O548        H552   0.992       .  S
H549       C1697   1.084       .  S
O550       H1703   0.992       .  S
H551       O1702   0.992       .  S
C553        C554   1.406       .  A
C553        C558   1.410       .  A
C554        C555   1.407       .  A
C554        H559   1.083       .  S
C555        C556   1.409       .  A
C555        O560   1.369       .  S
C556        C557   1.403       .  A
C557        C558   1.391       .  A
C557       H1713   1.084       .  S
C558        O562   1.374       .  S
O560        H564   0.992       .  S
H561       C1709   1.084       .  S
O562       H1715   0.992       .  S
H563       O1714   0.992       .  S
C565        C566   1.405       .  A
C565        C570   1.411       .  A
C566        C567   1.400       .  A
C566        H571   1.084       .  S
C567        C568   1.411       .  A
C567        O572   1.372       .  S
C568        C569   1.405       .  A
C569        C570   1.404       .  A
C569        H573   1.083       .  S
C570        O574   1.372       .  S
O572        H576   0.992       .  S
O574        H575   0.992       .  S
C577        C866   1.408       .  A
C577        C582   1.403       .  A
C577       C1129   1.484       .  S
C578        C865   1.408       .  A
C578        C579   1.409       .  A
C578        H583   1.083       .  S
C579        C580   1.404       .  A
C579        C853   1.488       .  S
C580        C869   1.404       .  A
C580        H584   1.084       .  S
C581        C868   1.404       .  A
C581        C582   1.396       .  A
C581       C1117   1.482       .  S
C582        H585   1.083       .  S
C586        C587   1.408       .  A
C586        C591   1.407       .  A
C586        C805   1.486       .  S
C587        C588   1.403       .  A
C587        H592   1.084       .  S
C588        C589   1.401       .  A
C588        C856   1.488       .  S
C589        C590   1.410       .  A
C589        H593   1.084       .  S
C590        C591   1.404       .  A
C590        C817   1.493       .  S
C591        H594   1.082       .  S
C595        C596   1.408       .  A
C595        C600   1.402       .  A
C595        C769   1.482       .  S
C596        C597   1.406       .  A
C596        H601   1.084       .  S
C597        C598   1.405       .  A
C597        C793   1.487       .  S
C598        C599   1.406       .  A
C598        H602   1.084       .  S
C599        C600   1.401       .  A
C599        C781   1.481       .  S
C600        H603   1.084       .  S
C604        C605   1.409       .  A
C604        C609   1.405       .  A
C604        C760   1.482       .  S
C605        C606   1.408       .  A
C605        H610   1.083       .  S
C606        C607   1.405       .  A
C606        C796   1.486       .  S
C607        C608   1.405       .  A
C607        H611   1.084       .  S
C608        C609   1.395       .  A
C608        C745   1.483       .  S
C609        H612   1.084       .  S
C613        C614   1.405       .  A
C613        C618   1.404       .  A
C613        C712   1.476       .  S
C614        C615   1.405   1_455  A
C614        H619   1.084   1_455  S
C615        C616   1.403   1_655  A
C615       C1885   1.488       .  S
C616        C617   1.409       .  A
C616        H620   1.084   1_455  S
C617        C618   1.403       .  A
C617        C724   1.487       .  S
C618        H621   1.084       .  S
C622        C623   1.408       .  A
C622        C627   1.403       .  A
C622        C697   1.482       .  S
C623        C624   1.410       .  A
C623        H628   1.083       .  S
C624        C625   1.406       .  A
C624        C736   1.489       .  S
C625        C626   1.405       .  A
C625        H629   1.083       .  S
C626        C627   1.394       .  A
C626        C688   1.486       .  S
C627        H630   1.084       .  S
O631        C642   1.296       .  A
O631      Zr1819   2.464   1_455  S
O632        C643   1.298       .  A
O632       Zr666   2.476   1_565  S
O633        C644   1.297       .  A
O633      Zr1791   2.467   1_455  S
O634        C645   1.300       .  A
O634       Zr639   2.484       .  S
O635        C645   1.283       .  A
O635       Zr669   2.392       .  S
O636        C644   1.289       .  A
O637        C643   1.286       .  A
O637       Zr639   2.394       .  S
O638        C642   1.288       .  A
O638      Zr1791   2.407   1_455  S
Zr639      O1785   2.467       .  S
Zr639      O1790   2.407       .  S
Zr639       O640   2.333       .  S
Zr639      O1793   2.345       .  S
Zr639       O649   2.338       .  S
Zr639       O647   2.342       .  S
O640       Zr666   2.335   1_565  S
O640       Zr669   2.334       .  S
O641      Zr1791   2.345   1_455  S
O641      Zr1819   2.345   1_455  S
C642        C844   1.479       .  S
C643        C685   1.484       .  S
C644        C772   1.480       .  S
C645        C820   1.493       .  S
H646        O647   0.965       .  S
O647       Zr666   2.338   1_565  S
O647      Zr1244   2.342   1_565  S
H648        O649   0.966       .  S
O649       Zr667   2.338       .  S
O649       Zr669   2.336       .  S
O650        C673   1.296       .  A
O651       Zr955   2.473   1_545  S
O652       C1827   1.296   1_455  A
O652       Zr668   2.456       .  S
O653        C676   1.293       .  A
O653       Zr669   2.450       .  S
O654        C965   1.294       .  A
O654       Zr669   2.457   1_556  S
O655       Zr668   2.478       .  S
O656       C1831   1.296       .  A
O656       Zr670   2.462       .  S
O657        C680   1.294   1_554  A
O657       Zr670   2.454       .  S
O658        C679   1.286       .  A
O658       Zr668   2.404       .  S
O659       Zr669   2.412       .  S
O660        C675   1.290       .  A
O661        C678   1.285   1_566  A
O661      Zr1819   2.394   1_456  S
O662        C677   1.287       .  A
O662       Zr955   2.403       .  S
O663        C676   1.290       .  A
O663       Zr666   2.426   1_565  S
O664        C673   1.289       .  A
O664       Zr670   2.417       .  S
O665        C674   1.287       .  A
O665       Zr958   2.407       .  S
Zr666       O684   2.346       .  S
Zr667      O1783   2.464       .  S
Zr667       O939   2.473   1_564  S
Zr667      O1813   2.394   1_554  S
Zr667       O950   2.403   1_554  S
Zr667      O1793   2.345       .  S
Zr667       O671   2.340       .  S
Zr668      O1223   2.342   1_455  S
Zr668      O1824   2.345   1_455  S
Zr668      O1834   2.329   1_455  S
Zr669       O671   2.333       .  S
Zr669       O684   2.335   1_565  S
Zr670       O953   2.407   1_554  S
Zr670       O672   2.340       .  S
Zr670       O682   2.333       .  S
O672      Zr1820   2.345       .  S
C673        C808   1.473       .  S
C674        C721   1.488       .  S
C675        C709   1.485       .  S
C675       O1804   1.296       .  A
C676        C784   1.468       .  S
C677        C700   1.474       .  S
C677        O942   1.294       .  A
C679        C832   1.479       .  S
C679       O1808   1.296   1_455  A
C680       C1045   1.478       .  S
H681       O1834   0.965   1_455  S
O682      Zr1820   2.329       .  S
O682       H1833   0.965       .  S
C685        C686   1.407       .  A
C685        C690   1.408       .  A
C686        C687   1.391       .  A
C686        H691   1.084       .  S
C687        C688   1.407       .  A
C687        O692   1.373       .  S
C688        C689   1.410       .  A
C689        C690   1.406       .  A
C689        H693   1.083       .  S
C690        O694   1.370       .  S
O692        H696   0.992       .  S
O694        H695   0.992       .  S
C697        C698   1.403       .  A
C697        C702   1.410       .  A
C698        C699   1.388       .  A
C698        H703   1.084       .  S
C699        C700   1.408       .  A
C699        O704   1.374       .  S
C700        C701   1.406       .  A
C701        C702   1.408       .  A
C701        H705   1.084       .  S
C702        O706   1.371       .  S
O704        H708   0.992       .  S
O706        H707   0.992       .  S
C709       C1862   1.408       .  A
C709        C714   1.415       .  A
C710       C1861   1.408   1_455  A
C710        C711   1.405       .  A
C710        H715   1.083       .  S
C711        C712   1.407       .  A
C711        O716   1.371       .  S
C712       C1865   1.399   1_455  A
C713       C1864   1.399       .  A
C713        C714   1.395       .  A
C713        H717   1.084       .  S
C714        O718   1.372       .  S
O716        H720   0.992       .  S
O718        H719   0.992       .  S
C721       C1874   1.408       .  A
C721        C726   1.415       .  A
C722       C1873   1.408   1_455  A
C722        C723   1.410       .  A
C722        H727   1.083       .  S
C723        C724   1.411       .  A
C723        O728   1.371       .  S
C724       C1877   1.400   1_455  A
C725       C1876   1.400       .  A
C725        C726   1.392       .  A
C725        H729   1.084       .  S
C726        O730   1.373       .  S
O728        H732   0.992       .  S
O730        H731   0.992       .  S
C733        C734   1.405       .  A
C733        C738   1.410       .  A
C733       C1767   1.488       .  S
C734        C735   1.401       .  A
C734        H739   1.084       .  S
C735        C736   1.409       .  A
C735        O740   1.372       .  S
C736        C737   1.407       .  A
C737        C738   1.405       .  A
C737        H741   1.083       .  S
C738       O1894   1.372       .  S
O740        H744   0.992       .  S
O742       C1890   1.372   1_455  S
O742        H743   0.992       .  S
C745        C746   1.398       .  A
C745        C750   1.412       .  A
C747        O752   1.371       .  S
C748       C1037   1.406       .  A
C749       C1036   1.406       .  A
C749       C1038   1.410       .  A
C749        H753   1.083   1_556  S
C750       C1037   1.410       .  A
C750        O754   1.372       .  S
O752        H756   0.992       .  S
O754       H1043   0.992       .  S
H755       O1042   0.992       .  S
C757        C758   1.407       .  A
C757       C1050   1.410       .  A
C757        C968   1.478       .  S
C758        C759   1.409       .  A
C758        H763   1.083       .  S
C759        C760   1.409       .  A
C759        O764   1.371       .  S
C760        C761   1.402       .  A
C761       C1050   1.388       .  A
C761        H765   1.084       .  S
C762       C1045   1.410       .  A
C762       C1049   1.388       .  A
O764        H768   0.992       .  S
O766        H767   0.992   1_565  S
C769        C770   1.409       .  A
C769        C774   1.406       .  A
C770        C771   1.406       .  A
C770        H775   1.083       .  S
C771        C772   1.408       .  A
C771        O776   1.371       .  S
C772        C773   1.406       .  A
C773        C774   1.394       .  A
C773        H777   1.084       .  S
C774        O778   1.372   1_565  S
O776        H780   0.992       .  S
C781        C782   1.402       .  A
C781        C786   1.412       .  A
C782        C783   1.398       .  A
C782        H787   1.084       .  S
C783        C784   1.408       .  A
C783        O788   1.372       .  S
C784        C785   1.399       .  A
C785        C786   1.402       .  A
C785        H789   1.083       .  S
C786        O790   1.372       .  S
O788        H792   0.989       .  S
O790        H791   0.992       .  S
C793        C794   1.402       .  A
C794        C795   1.401       .  A
C794        H799   1.084       .  S
C795        O800   1.372       .  S
C796        C797   1.403       .  A
C797        C798   1.405       .  A
C797        H801   1.083       .  S
C798        O802   1.372       .  S
O800        H804   0.992       .  S
O802        H803   0.992       .  S
C805        C806   1.404       .  A
C805        C810   1.413       .  A
C806        C807   1.395       .  A
C806        H811   1.084       .  S
C807        C808   1.409       .  A
C807        O812   1.373       .  S
C808        C809   1.402       .  A
C809        C810   1.406       .  A
C809        H813   1.083       .  S
C810        O814   1.372       .  S
O812        H816   0.992       .  S
O814        H815   0.992       .  S
C817        C818   1.399       .  A
C817        C822   1.415       .  A
C818        C819   1.389       .  A
C818        H823   1.084       .  S
C819        C820   1.419       .  A
C819        O824   1.373       .  S
C820        C821   1.408       .  A
C821        C822   1.412       .  A
C821        H825   1.083       .  S
C822        O826   1.372       .  S
O824        H828   0.993       .  S
O826        H827   0.992       .  S
C829        C830   1.401       .  A
C829        C834   1.411       .  A
C829        C869   1.482       .  S
C830        C831   1.391       .  A
C830        H835   1.084       .  S
C831        C832   1.412       .  A
C831        O836   1.373       .  S
C832        C833   1.406       .  A
C833        C834   1.407       .  A
C833       H1989   1.084   1_554  S
C834       O1126   1.372   1_554  S
O836        H840   0.992       .  S
H837       C1985   1.084   1_556  S
O838       C1122   1.372       .  S
O838       H1991   0.992       .  S
H839       O1990   0.992       .  S
C841        C842   1.406       .  A
C841        C846   1.410       .  A
C841        C865   1.484       .  S
C842        C843   1.407       .  A
C842        H847   1.083   1_554  S
C843        C844   1.409       .  A
C843        O848   1.369   1_554  S
C844        C845   1.403       .  A
C845        C846   1.391       .  A
C845       H2001   1.084       .  S
C846        O850   1.374       .  S
O848        H852   0.992       .  S
H849       C1997   1.084       .  S
O850       H2003   0.992       .  S
H851       O2002   0.992       .  S
C853        C854   1.405       .  A
C853        C858   1.411       .  A
C854        C855   1.400       .  A
C854        H859   1.084       .  S
C855        C856   1.411       .  A
C855        O860   1.372       .  S
C856        C857   1.405       .  A
C857        C858   1.404       .  A
C857        H861   1.083       .  S
C858        O862   1.372       .  S
O860        H864   0.992       .  S
O862        H863   0.992       .  S
C865        C870   1.403       .  A
C866        C867   1.409       .  A
C866        H871   1.083       .  S
C867        C868   1.404       .  A
C867       C1141   1.488       .  S
C868        H872   1.084       .  S
C869        C870   1.396       .  A
C870        H873   1.083       .  S
C874        C875   1.408       .  A
C874        C879   1.407       .  A
C874       C1093   1.486       .  S
C875        C876   1.403       .  A
C875        H880   1.084       .  S
C876        C877   1.401       .  A
C876       C1144   1.488       .  S
C877        C878   1.410       .  A
C877        H881   1.084       .  S
C878        C879   1.404       .  A
C878       C1105   1.493       .  S
C879        H882   1.082       .  S
C883        C884   1.408       .  A
C883        C888   1.402       .  A
C883       C1057   1.482       .  S
C884        C885   1.406       .  A
C884        H889   1.084       .  S
C885        C886   1.405       .  A
C885       C1081   1.487       .  S
C886        C887   1.406       .  A
C886        H890   1.084       .  S
C887        C888   1.401       .  A
C887       C1069   1.481       .  S
C888        H891   1.084       .  S
C892        C893   1.409       .  A
C892        C897   1.405       .  A
C892       C1048   1.482       .  S
C893        C894   1.408       .  A
C893        H898   1.083       .  S
C894        C895   1.405       .  A
C894       C1084   1.486       .  S
C895        C896   1.405       .  A
C895        H899   1.084       .  S
C896        C897   1.395       .  A
C896       C1033   1.483       .  S
C897        H900   1.084       .  S
C901        C902   1.405       .  A
C901        C906   1.404       .  A
C901       C1000   1.476       .  S
C902        C903   1.405   1_455  A
C902        H907   1.084   1_455  S
C903        C904   1.403   1_655  A
C903       C2173   1.488       .  S
C904        C905   1.409       .  A
C904        H908   1.084   1_455  S
C905        C906   1.403       .  A
C905       C1012   1.487       .  S
C906        H909   1.084       .  S
C910        C911   1.408       .  A
C910        C915   1.403       .  A
C910        C985   1.482       .  S
C911        C912   1.410       .  A
C911        H916   1.083       .  S
C912        C913   1.406       .  A
C912       C1024   1.489       .  S
C913        C914   1.405       .  A
C913        H917   1.083       .  S
C914        C915   1.394       .  A
C914        C976   1.486       .  S
C915        H918   1.084       .  S
O919        C930   1.296       .  A
O919      Zr2107   2.464   1_455  S
O920        C931   1.298       .  A
O920       Zr954   2.476   1_565  S
O921        C932   1.297       .  A
O921      Zr2079   2.468   1_455  S
O922        C933   1.300       .  A
O922       Zr927   2.484       .  S
O923        C933   1.283       .  A
O923       Zr957   2.392       .  S
O924        C932   1.289       .  A
O925        C931   1.286       .  A
O925       Zr927   2.394       .  S
O926        C930   1.288       .  A
O926      Zr2079   2.407   1_455  S
Zr927      O2073   2.468       .  S
Zr927      O2078   2.407       .  S
Zr927       O928   2.333       .  S
Zr927      O2081   2.345       .  S
Zr927       O937   2.338       .  S
Zr927       O935   2.342       .  S
O928       Zr954   2.334   1_565  S
O928       Zr957   2.334       .  S
O929      Zr2079   2.345   1_455  S
O929      Zr2107   2.345   1_455  S
C930       C1132   1.479       .  S
C931        C973   1.484       .  S
C932       C1060   1.481       .  S
C933       C1108   1.493       .  S
H934        O935   0.965       .  S
O935       Zr954   2.338   1_565  S
O935      Zr1532   2.342   1_565  S
H936        O937   0.966       .  S
O937       Zr955   2.338       .  S
O937       Zr957   2.336       .  S
O938        C961   1.296       .  A
O940       C2115   1.296   1_455  A
O940       Zr956   2.456       .  S
O941        C964   1.293       .  A
O941       Zr957   2.450       .  S
O942       Zr957   2.457       .  S
O943       Zr956   2.478       .  S
O944       C2119   1.296       .  A
O944       Zr958   2.462       .  S
O945        C968   1.294       .  A
O945       Zr958   2.454       .  S
O946        C967   1.286       .  A
O946       Zr956   2.404       .  S
O947       Zr957   2.412       .  S
O948        C963   1.290       .  A
O949        C966   1.285   1_565  A
O949      Zr2107   2.394   1_455  S
O950        C965   1.287       .  A
O951        C964   1.290       .  A
O951       Zr954   2.426   1_565  S
O952        C961   1.289       .  A
O952       Zr958   2.417       .  S
O953        C962   1.287       .  A
Zr954       O972   2.346       .  S
Zr955      O2071   2.464       .  S
Zr955      O2101   2.394       .  S
Zr955      O2081   2.345       .  S
Zr955       O959   2.340       .  S
Zr956      O1511   2.342   1_455  S
Zr956      O2112   2.345   1_455  S
Zr956      O2122   2.329   1_455  S
Zr957       O959   2.333       .  S
Zr957       O972   2.335   1_565  S
Zr958       O960   2.340       .  S
Zr958       O970   2.333       .  S
O960      Zr2108   2.345       .  S
C961       C1096   1.473       .  S
C962       C1009   1.488       .  S
C963        C997   1.485       .  S
C963       O2092   1.296       .  A
C964       C1072   1.468       .  S
C965        C988   1.474       .  S
C967       C1120   1.479       .  S
C967       O2096   1.296   1_455  A
H969       O2122   0.965   1_455  S
O970      Zr2108   2.329       .  S
O970       H2121   0.965       .  S
C973        C974   1.407       .  A
C973        C978   1.408       .  A
C974        C975   1.391       .  A
C974        H979   1.084       .  S
C975        C976   1.407       .  A
C975        O980   1.373       .  S
C976        C977   1.410       .  A
C977        C978   1.406       .  A
C977        H981   1.083       .  S
C978        O982   1.370       .  S
O980        H984   0.992       .  S
O982        H983   0.992       .  S
C985        C986   1.403       .  A
C985        C990   1.410       .  A
C986        C987   1.388       .  A
C986        H991   1.084       .  S
C987        C988   1.408       .  A
C987        O992   1.374       .  S
C988        C989   1.406       .  A
C989        C990   1.408       .  A
C989        H993   1.084       .  S
C990        O994   1.371       .  S
O992        H996   0.992       .  S
O994        H995   0.992       .  S
C997       C2150   1.408       .  A
C997       C1002   1.415       .  A
C998       C2149   1.408   1_455  A
C998        C999   1.405       .  A
C998       H1003   1.083       .  S
C999       C1000   1.407       .  A
C999       O1004   1.371       .  S
C1000      C2153   1.399   1_455  A
C1001      C2152   1.399       .  A
C1001      C1002   1.395       .  A
C1001      H1005   1.084       .  S
C1002      O1006   1.372       .  S
O1004      H1008   0.992       .  S
O1006      H1007   0.992       .  S
C1009      C2162   1.408       .  A
C1009      C1014   1.415       .  A
C1010      C2161   1.408   1_455  A
C1010      C1011   1.410       .  A
C1010      H1015   1.083       .  S
C1011      C1012   1.411       .  A
C1011      O1016   1.371       .  S
C1012      C2165   1.400   1_455  A
C1013      C2164   1.400       .  A
C1013      C1014   1.392       .  A
C1013      H1017   1.084       .  S
C1014      O1018   1.373       .  S
O1016      H1020   0.992       .  S
O1018      H1019   0.992       .  S
C1021      C1022   1.405       .  A
C1021      C1026   1.410       .  A
C1021      C2055   1.488       .  S
C1022      C1023   1.401       .  A
C1022      H1027   1.084       .  S
C1023      C1024   1.409       .  A
C1023      O1028   1.372       .  S
C1024      C1025   1.407       .  A
C1025      C1026   1.405       .  A
C1025      H1029   1.083       .  S
C1026      O2182   1.372       .  S
O1028      H1032   0.992       .  S
O1030      C2178   1.372   1_455  S
O1030      H1031   0.992       .  S
C1033      C1034   1.398       .  A
C1033      C1038   1.412       .  A
C1035      O1040   1.371       .  S
C1037      H1041   1.083       .  S
C1038      O1042   1.372       .  S
O1040      H1044   0.992       .  S
C1045      C1046   1.407       .  A
C1046      C1047   1.409       .  A
C1046      H1051   1.083       .  S
C1047      C1048   1.409       .  A
C1047      O1052   1.371       .  S
C1048      C1049   1.402       .  A
C1049      H1053   1.084       .  S
O1052      H1056   0.992       .  S
O1054      H1055   0.987       .  S
C1057      C1058   1.409       .  A
C1057      C1062   1.406       .  A
C1058      C1059   1.406       .  A
C1058      H1063   1.083       .  S
C1059      C1060   1.408       .  A
C1059      O1064   1.371       .  S
C1060      C1061   1.406       .  A
C1061      C1062   1.394       .  A
C1061      H1065   1.084       .  S
C1062      O1066   1.372   1_565  S
O1064      H1068   0.992       .  S
C1069      C1070   1.402       .  A
C1069      C1074   1.412       .  A
C1070      C1071   1.398       .  A
C1070      H1075   1.084       .  S
C1071      C1072   1.408       .  A
C1071      O1076   1.372       .  S
C1072      C1073   1.399       .  A
C1073      C1074   1.402       .  A
C1073      H1077   1.083       .  S
C1074      O1078   1.372       .  S
O1076      H1080   0.989       .  S
O1078      H1079   0.992       .  S
C1081      C1082   1.402       .  A
C1082      C1083   1.401       .  A
C1082      H1087   1.084       .  S
C1083      O1088   1.372       .  S
C1084      C1085   1.403       .  A
C1085      C1086   1.405       .  A
C1085      H1089   1.083       .  S
C1086      O1090   1.372       .  S
O1088      H1092   0.992       .  S
O1090      H1091   0.992       .  S
C1093      C1094   1.404       .  A
C1093      C1098   1.413       .  A
C1094      C1095   1.395       .  A
C1094      H1099   1.084       .  S
C1095      C1096   1.409       .  A
C1095      O1100   1.373       .  S
C1096      C1097   1.402       .  A
C1097      C1098   1.406       .  A
C1097      H1101   1.083       .  S
C1098      O1102   1.372       .  S
O1100      H1104   0.992       .  S
O1102      H1103   0.992       .  S
C1105      C1106   1.399       .  A
C1105      C1110   1.415       .  A
C1106      C1107   1.389       .  A
C1106      H1111   1.084       .  S
C1107      C1108   1.419       .  A
C1107      O1112   1.373       .  S
C1108      C1109   1.408       .  A
C1109      C1110   1.412       .  A
C1109      H1113   1.083       .  S
C1110      O1114   1.372       .  S
O1112      H1116   0.993       .  S
O1114      H1115   0.992       .  S
C1117      C1118   1.401       .  A
C1117      C1122   1.411       .  A
C1118      C1119   1.391       .  A
C1118      H1123   1.084       .  S
C1119      C1120   1.412       .  A
C1119      O1124   1.373       .  S
C1120      C1121   1.406       .  A
C1121      C1122   1.407       .  A
C1121      H2277   1.084       .  S
O1124      H1128   0.992       .  S
H1125      C2273   1.084       .  S
O1126      H2279   0.992       .  S
H1127      O2278   0.992       .  S
C1129      C1130   1.406       .  A
C1129      C1134   1.410       .  A
C1130      C1131   1.407       .  A
C1130      H1135   1.083       .  S
C1131      C1132   1.409       .  A
C1131      O1136   1.369       .  S
C1132      C1133   1.403       .  A
C1133      C1134   1.391       .  A
C1133      H2289   1.084       .  S
C1134      O1138   1.374       .  S
O1136      H1140   0.992       .  S
H1137      C2285   1.084       .  S
O1138      H2291   0.992       .  S
H1139      O2290   0.992       .  S
C1141      C1142   1.405       .  A
C1141      C1146   1.411       .  A
C1142      C1143   1.400       .  A
C1142      H1147   1.084       .  S
C1143      C1144   1.411       .  A
C1143      O1148   1.372       .  S
C1144      C1145   1.405       .  A
C1145      C1146   1.404       .  A
C1145      H1149   1.083       .  S
C1146      O1150   1.372       .  S
O1148      H1152   0.992       .  S
O1150      H1151   0.992       .  S
C1153      C1442   1.408       .  A
C1153      C1158   1.403       .  A
C1153      C1705   1.484       .  S
C1154      C1441   1.408       .  A
C1154      C1155   1.409       .  A
C1154      H1159   1.083       .  S
C1155      C1156   1.404       .  A
C1155      C1429   1.488       .  S
C1156      C1445   1.404       .  A
C1156      H1160   1.084       .  S
C1157      C1444   1.404       .  A
C1157      C1158   1.396       .  A
C1157      C1693   1.482       .  S
C1158      H1161   1.083       .  S
C1162      C1163   1.408       .  A
C1162      C1167   1.407       .  A
C1162      C1381   1.486       .  S
C1163      C1164   1.403       .  A
C1163      H1168   1.084       .  S
C1164      C1165   1.401       .  A
C1164      C1432   1.488       .  S
C1165      C1166   1.410       .  A
C1165      H1169   1.084       .  S
C1166      C1167   1.404       .  A
C1166      C1393   1.493       .  S
C1167      H1170   1.082       .  S
C1171      C1172   1.408       .  A
C1171      C1176   1.402       .  A
C1171      C1345   1.482       .  S
C1172      C1173   1.406       .  A
C1172      H1177   1.084       .  S
C1173      C1174   1.405       .  A
C1173      C1369   1.487       .  S
C1174      C1175   1.406       .  A
C1174      H1178   1.084       .  S
C1175      C1176   1.401       .  A
C1175      C1357   1.481       .  S
C1176      H1179   1.084       .  S
C1180      C1181   1.409       .  A
C1180      C1185   1.405       .  A
C1180      C1336   1.482       .  S
C1181      C1182   1.408       .  A
C1181      H1186   1.083       .  S
C1182      C1183   1.405       .  A
C1182      C1372   1.486       .  S
C1183      C1184   1.405       .  A
C1183      H1187   1.084       .  S
C1184      C1185   1.395       .  A
C1184      C1321   1.483       .  S
C1185      H1188   1.084       .  S
C1189      C1190   1.405       .  A
C1189      C1194   1.404       .  A
C1189      C1288   1.476       .  S
C1190      C1191   1.405       .  A
C1190      H1195   1.084       .  S
C1191      C1192   1.403       .  A
C1192      C1193   1.409       .  A
C1192      H1196   1.084       .  S
C1193      C1194   1.403       .  A
C1193      C1300   1.487       .  S
C1194      H1197   1.084       .  S
C1198      C1199   1.408       .  A
C1198      C1203   1.403       .  A
C1198      C1273   1.482       .  S
C1199      C1200   1.410       .  A
C1199      H1204   1.083       .  S
C1200      C1201   1.406       .  A
C1200      C1312   1.489       .  S
C1201      C1202   1.405       .  A
C1201      H1205   1.083       .  S
C1202      C1203   1.394       .  A
C1202      C1264   1.486       .  S
C1203      H1206   1.084       .  S
O1207      C1218   1.296       .  A
O1208      C1219   1.298       .  A
O1208     Zr1242   2.476       .  S
O1209      C1220   1.297       .  A
O1210      C1221   1.300       .  A
O1210     Zr1215   2.484       .  S
O1211      C1221   1.283       .  A
O1211     Zr1245   2.392       .  S
O1212      C1220   1.289       .  A
O1212     Zr1820   2.412       .  S
O1213      C1219   1.286       .  A
O1213     Zr1215   2.394       .  S
O1214      C1218   1.288       .  A
Zr1215     O1216   2.333       .  S
Zr1215     O1225   2.338       .  S
Zr1215     O1223   2.342       .  S
O1216     Zr1242   2.335       .  S
O1216     Zr1245   2.334       .  S
O1217     Zr1820   2.342       .  S
C1218      C1420   1.479       .  S
C1219      C1261   1.484       .  S
C1220      C1348   1.480       .  S
C1221      C1396   1.493       .  S
H1222      O1223   0.965       .  S
O1223     Zr1242   2.338       .  S
H1224      O1225   0.966       .  S
O1225     Zr1243   2.338       .  S
O1225     Zr1245   2.336       .  S
O1226      C1249   1.296       .  A
O1226     Zr1818   2.461       .  S
O1227      C1826   1.298       .  A
O1227     Zr1531   2.473       .  S
O1228     Zr1244   2.456       .  S
O1229      C1252   1.293       .  A
O1229     Zr1245   2.450       .  S
O1230      C1541   1.294       .  A
O1230     Zr1245   2.457   1_556  S
O1231      C1830   1.299       .  A
O1231     Zr1244   2.478       .  S
O1232     Zr1246   2.462       .  S
O1233      C1256   1.294   1_554  A
O1233     Zr1246   2.454       .  S
O1234      C1255   1.286       .  A
O1234     Zr1244   2.404       .  S
O1235      C1832   1.288   1_554  A
O1235     Zr1245   2.412       .  S
O1236      C1251   1.290       .  A
O1236     Zr1818   2.423       .  S
O1237      C1254   1.285   1_556  A
O1238      C1253   1.287       .  A
O1238     Zr1531   2.403       .  S
O1239      C1252   1.290       .  A
O1239     Zr1242   2.426       .  S
O1240      C1249   1.289       .  A
O1240     Zr1246   2.417       .  S
O1241      C1250   1.287       .  A
O1241     Zr1534   2.407       .  S
Zr1242     O1802   2.461       .  S
Zr1242     O1812   2.423       .  S
Zr1242     O1824   2.348       .  S
Zr1242     O1260   2.346       .  S
Zr1243     O1515   2.473   1_554  S
Zr1243     O1526   2.403   1_554  S
Zr1243     O1247   2.340       .  S
Zr1243     O1834   2.331       .  S
Zr1244     O1788   2.412   1_545  S
Zr1244     O1793   2.342   1_545  S
Zr1245     O1247   2.333       .  S
Zr1245     O1260   2.335       .  S
Zr1246     O1529   2.407   1_554  S
Zr1246     O1823   2.341   1_545  S
Zr1246     O1248   2.340       .  S
Zr1246     O1836   2.343       .  S
Zr1246     O1258   2.333       .  S
O1247     Zr1822   2.341       .  S
O1248     Zr1818   2.348       .  S
C1249      C1384   1.473       .  S
C1250      C1297   1.488       .  S
C1250      O1803   1.298       .  A
C1251      C1285   1.485       .  S
C1252      C1360   1.468       .  S
C1253      C1276   1.474       .  S
C1253      O1518   1.294       .  A
C1254      C2188   1.484   1_554  S
C1254      O1807   1.299       .  A
C1255      C1408   1.479       .  S
C1256      C1621   1.478       .  S
C1256      O1811   1.288   1_546  A
O1258     Zr1819   2.331   1_545  S
H1259      O1836   0.966       .  S
O1260     Zr1822   2.343       .  S
O1260      H1835   0.966       .  S
C1261      C1262   1.407       .  A
C1261      C1266   1.408       .  A
C1262      C1263   1.391       .  A
C1262      H1267   1.084       .  S
C1263      C1264   1.407       .  A
C1263      O1268   1.373       .  S
C1264      C1265   1.410       .  A
C1265      C1266   1.406       .  A
C1265      H1269   1.083       .  S
C1266      O1270   1.370       .  S
O1268      H1272   0.992       .  S
O1270      H1271   0.992       .  S
C1273      C1274   1.403       .  A
C1273      C1278   1.410       .  A
C1274      C1275   1.388       .  A
C1274      H1279   1.084       .  S
C1275      C1276   1.408       .  A
C1275      O1280   1.374       .  S
C1276      C1277   1.406       .  A
C1277      C1278   1.408       .  A
C1277      H1281   1.084       .  S
C1278      O1282   1.371       .  S
O1280      H1284   0.992       .  S
O1282      H1283   0.992       .  S
C1285      C1290   1.415       .  A
C1286      C1287   1.405       .  A
C1286      H1291   1.083       .  S
C1287      C1288   1.407       .  A
C1287      O1292   1.371       .  S
C1289      C1290   1.395       .  A
C1289      H1293   1.084       .  S
C1290      O1294   1.372       .  S
O1292      H1296   0.992       .  S
O1294      H1295   0.992       .  S
C1297      C1302   1.415       .  A
C1298      C1299   1.410       .  A
C1298      H1303   1.083       .  S
C1299      C1300   1.411       .  A
C1299      O1304   1.371       .  S
C1301      C1302   1.392       .  A
C1301      H1305   1.084       .  S
C1302      O1306   1.373       .  S
O1304      H1308   0.992       .  S
O1306      H1307   0.992       .  S
C1309      C1310   1.405       .  A
C1309      C1314   1.410       .  A
C1310      C1311   1.401       .  A
C1310      H1315   1.084       .  S
C1311      C1312   1.409       .  A
C1311      O1316   1.372       .  S
C1312      C1313   1.407       .  A
C1313      C1314   1.405       .  A
C1313      H1317   1.083       .  S
O1316      H1320   0.992       .  S
O1318      H1319   0.992       .  S
C1321      C1322   1.398   1_545  A
C1321      C1326   1.412       .  A
C1322      C1899   1.390       .  A
C1322      H1903   1.084       .  S
C1323      C1898   1.390       .  A
C1323      C1900   1.414       .  A
C1323      O1328   1.371       .  S
C1324      C1899   1.414   1_545  A
C1324      C1613   1.406       .  A
C1324      C2118   1.484       .  S
C1325      C1612   1.406       .  A
C1325      C1614   1.410       .  A
C1325      H1329   1.083   1_556  S
C1326      C1613   1.410       .  A
C1326      O1330   1.372       .  S
H1327      C1898   1.084       .  S
O1328      H1332   0.992       .  S
O1330      H1619   0.992       .  S
H1331      O1618   0.992       .  S
C1333      C1334   1.408       .  A
C1333      C1626   1.410       .  A
C1333      C1544   1.478       .  S
C1334      C1335   1.409       .  A
C1334      H1339   1.083       .  S
C1335      C1336   1.409       .  A
C1335      O1340   1.371       .  S
C1336      C1337   1.401       .  A
C1337      C1626   1.388       .  A
C1337      H1341   1.084   1_545  S
C1338      C1621   1.410       .  A
C1338      C1625   1.388       .  A
C1338      O1918   1.373   1_546  S
O1340      H1344   0.992       .  S
O1342      C1914   1.373   1_554  S
O1342      H1343   0.992       .  S
C1345      C1346   1.409       .  A
C1345      C1350   1.406       .  A
C1346      C1347   1.406       .  A
C1346      H1351   1.083       .  S
C1347      C1348   1.408       .  A
C1347      O1352   1.371       .  S
C1348      C1349   1.406       .  A
C1349      C1350   1.394       .  A
C1349      H1353   1.084       .  S
C1350      O1354   1.372       .  S
O1352      H1356   0.992       .  S
O1354      H1931   0.992       .  S
H1355      O1930   0.992       .  S
C1357      C1358   1.402       .  A
C1357      C1362   1.412       .  A
C1358      C1359   1.398       .  A
C1358      H1363   1.084       .  S
C1359      C1360   1.408       .  A
C1359      O1364   1.372       .  S
C1360      C1361   1.399       .  A
C1361      C1362   1.402       .  A
C1361      H1365   1.083       .  S
C1362      O1366   1.372       .  S
O1364      H1368   0.989       .  S
O1366      H1367   0.992       .  S
C1369      C1370   1.402       .  A
C1369      C1950   1.412       .  A
C1370      C1371   1.401       .  A
C1370      H1375   1.084       .  S
C1371      C1948   1.412       .  A
C1371      O1376   1.372       .  S
C1372      C1947   1.412   1_545  A
C1372      C1373   1.403       .  A
C1373      C1374   1.405       .  A
C1373      H1377   1.083       .  S
C1374      C1945   1.412   1_545  A
C1374      O1378   1.372       .  S
O1376      H1380   0.992       .  S
O1378      H1379   0.992       .  S
C1381      C1382   1.404       .  A
C1381      C1386   1.413       .  A
C1382      C1383   1.395       .  A
C1382      H1387   1.084       .  S
C1383      C1384   1.409       .  A
C1383      O1388   1.373       .  S
C1384      C1385   1.402       .  A
C1385      C1386   1.406       .  A
C1385      H1389   1.083       .  S
C1386      O1390   1.372       .  S
O1388      H1392   0.992       .  S
O1390      H1391   0.992       .  S
C1393      C1394   1.399       .  A
C1393      C1398   1.415       .  A
C1394      C1395   1.389       .  A
C1394      H1399   1.084       .  S
C1395      C1396   1.419       .  A
C1395      O1400   1.373       .  S
C1396      C1397   1.408       .  A
C1397      C1398   1.412       .  A
C1397      H1401   1.083       .  S
C1398      O1402   1.372       .  S
O1400      H1404   0.993       .  S
O1402      H1403   0.992       .  S
C1405      C1406   1.401       .  A
C1405      C1410   1.411       .  A
C1405      C1445   1.482       .  S
C1406      C1407   1.391       .  A
C1406      H1411   1.084       .  S
C1407      C1408   1.412       .  A
C1407      O1412   1.373       .  S
C1408      C1409   1.406       .  A
C1409      C1410   1.407       .  A
C1410      O1702   1.372   1_554  S
O1412      H1416   0.992       .  S
O1414      C1698   1.372       .  S
C1417      C1418   1.406       .  A
C1417      C1422   1.410       .  A
C1417      C1441   1.484       .  S
C1418      C1419   1.407       .  A
C1418      H1423   1.083   1_554  S
C1419      C1420   1.409       .  A
C1419      O1424   1.369   1_554  S
C1420      C1421   1.403       .  A
C1421      C1422   1.391       .  A
C1422      O1426   1.374       .  S
O1424      H1428   0.992       .  S
C1429      C1430   1.405       .  A
C1429      C1434   1.411       .  A
C1430      C1431   1.400       .  A
C1430      H1435   1.084       .  S
C1431      C1432   1.411       .  A
C1431      O1436   1.372       .  S
C1432      C1433   1.405       .  A
C1433      C1434   1.404       .  A
C1433      H1437   1.083       .  S
C1434      O1438   1.372       .  S
O1436      H1440   0.992       .  S
O1438      H1439   0.992       .  S
C1441      C1446   1.403       .  A
C1442      C1443   1.409       .  A
C1442      H1447   1.083       .  S
C1443      C1444   1.404       .  A
C1443      C1717   1.488       .  S
C1444      H1448   1.084       .  S
C1445      C1446   1.396       .  A
C1446      H1449   1.083       .  S
C1450      C1451   1.408       .  A
C1450      C1455   1.407       .  A
C1450      C1669   1.486       .  S
C1451      C1452   1.403       .  A
C1451      H1456   1.084       .  S
C1452      C1453   1.401       .  A
C1452      C1720   1.488       .  S
C1453      C1454   1.410       .  A
C1453      H1457   1.084       .  S
C1454      C1455   1.404       .  A
C1454      C1681   1.493       .  S
C1455      H1458   1.082       .  S
C1459      C1460   1.408       .  A
C1459      C1464   1.402       .  A
C1459      C1633   1.482       .  S
C1460      C1461   1.406       .  A
C1460      H1465   1.084       .  S
C1461      C1462   1.405       .  A
C1461      C1657   1.487       .  S
C1462      C1463   1.406       .  A
C1462      H1466   1.084       .  S
C1463      C1464   1.401       .  A
C1463      C1645   1.481       .  S
C1464      H1467   1.084       .  S
C1468      C1469   1.409       .  A
C1468      C1473   1.405       .  A
C1468      C1624   1.482       .  S
C1469      C1470   1.408       .  A
C1469      H1474   1.083       .  S
C1470      C1471   1.405       .  A
C1470      C1660   1.486       .  S
C1471      C1472   1.405       .  A
C1471      H1475   1.084       .  S
C1472      C1473   1.395       .  A
C1472      C1609   1.483       .  S
C1473      H1476   1.084       .  S
C1477      C1478   1.405       .  A
C1477      C1482   1.404       .  A
C1477      C1576   1.476       .  S
C1478      C1479   1.405       .  A
C1478      H1483   1.084       .  S
C1479      C1480   1.403       .  A
C1480      C1481   1.409       .  A
C1480      H1484   1.084       .  S
C1481      C1482   1.403       .  A
C1481      C1588   1.487       .  S
C1482      H1485   1.084       .  S
C1486      C1487   1.408       .  A
C1486      C1491   1.403       .  A
C1486      C1561   1.482       .  S
C1487      C1488   1.410       .  A
C1487      H1492   1.083       .  S
C1488      C1489   1.406       .  A
C1488      C1600   1.489       .  S
C1489      C1490   1.405       .  A
C1489      H1493   1.083       .  S
C1490      C1491   1.394       .  A
C1490      C1552   1.486       .  S
C1491      H1494   1.084       .  S
O1495      C1506   1.296       .  A
O1496      C1507   1.298       .  A
O1496     Zr1530   2.476       .  S
O1497      C1508   1.297       .  A
O1498      C1509   1.300       .  A
O1498     Zr1503   2.484       .  S
O1499      C1509   1.283       .  A
O1499     Zr1533   2.392       .  S
O1500      C1508   1.289       .  A
O1500     Zr2108   2.412       .  S
O1501      C1507   1.285       .  A
O1501     Zr1503   2.394       .  S
O1502      C1506   1.288       .  A
Zr1503     O1504   2.333       .  S
Zr1503     O1513   2.338       .  S
Zr1503     O1511   2.342       .  S
O1504     Zr1530   2.335       .  S
O1504     Zr1533   2.334       .  S
O1505     Zr2108   2.342       .  S
C1506      C1708   1.479       .  S
C1507      C1549   1.484       .  S
C1508      C1636   1.480       .  S
C1509      C1684   1.493       .  S
H1510      O1511   0.965       .  S
O1511     Zr1530   2.338       .  S
H1512      O1513   0.966       .  S
O1513     Zr1531   2.338       .  S
O1513     Zr1533   2.336       .  S
O1514      C1537   1.296       .  A
O1514     Zr2106   2.461       .  S
O1515      C2114   1.298       .  A
O1516     Zr1532   2.456       .  S
O1517      C1540   1.293       .  A
O1517     Zr1533   2.450       .  S
O1518     Zr1533   2.457       .  S
O1519      C2118   1.299       .  A
O1519     Zr1532   2.478       .  S
O1520     Zr1534   2.462       .  S
O1521      C1544   1.294       .  A
O1521     Zr1534   2.455       .  S
O1522      C1543   1.286       .  A
O1522     Zr1532   2.404       .  S
O1523      C2120   1.288       .  A
O1523     Zr1533   2.412       .  S
O1524      C1539   1.290       .  A
O1524     Zr2106   2.422       .  S
O1525      C1542   1.285       .  A
O1526      C1541   1.287       .  A
O1527      C1540   1.290       .  A
O1527     Zr1530   2.426       .  S
O1528      C1537   1.289       .  A
O1528     Zr1534   2.417       .  S
O1529      C1538   1.287       .  A
Zr1530     O2090   2.461       .  S
Zr1530     O2100   2.423       .  S
Zr1530     O2112   2.348       .  S
Zr1530     O1548   2.346       .  S
Zr1531     O1535   2.340       .  S
Zr1531     O2122   2.331       .  S
Zr1532     O2076   2.411   1_545  S
Zr1532     O2081   2.342   1_545  S
Zr1533     O1535   2.333       .  S
Zr1533     O1548   2.335       .  S
Zr1534     O2111   2.341   1_545  S
Zr1534     O1536   2.340       .  S
Zr1534     O2124   2.343       .  S
Zr1534     O1546   2.333       .  S
O1535     Zr2110   2.341       .  S
O1536     Zr2106   2.348       .  S
C1537      C1672   1.473       .  S
C1538      C1585   1.488       .  S
C1538      O2091   1.298       .  A
C1539      C1573   1.485       .  S
C1540      C1648   1.468       .  S
C1541      C1564   1.474       .  S
C1542      C1900   1.484       .  S
C1542      O2095   1.299       .  A
C1543      C1696   1.479       .  S
C1544      O2099   1.288   1_545  A
O1546     Zr2107   2.331   1_545  S
H1547      O2124   0.966       .  S
O1548     Zr2110   2.343       .  S
O1548      H2123   0.966       .  S
C1549      C1550   1.407       .  A
C1549      C1554   1.408       .  A
C1550      C1551   1.391       .  A
C1550      H1555   1.084       .  S
C1551      C1552   1.407       .  A
C1551      O1556   1.373       .  S
C1552      C1553   1.410       .  A
C1553      C1554   1.406       .  A
C1553      H1557   1.083       .  S
C1554      O1558   1.370       .  S
O1556      H1560   0.992       .  S
O1558      H1559   0.992       .  S
C1561      C1562   1.403       .  A
C1561      C1566   1.410       .  A
C1562      C1563   1.388       .  A
C1562      H1567   1.084       .  S
C1563      C1564   1.408       .  A
C1563      O1568   1.374       .  S
C1564      C1565   1.406       .  A
C1565      C1566   1.408       .  A
C1565      H1569   1.084       .  S
C1566      O1570   1.371       .  S
O1568      H1572   0.992       .  S
O1570      H1571   0.992       .  S
C1573      C1578   1.415       .  A
C1574      C1575   1.405       .  A
C1574      H1579   1.083       .  S
C1575      C1576   1.407       .  A
C1575      O1580   1.371       .  S
C1577      C1578   1.395       .  A
C1577      H1581   1.084       .  S
C1578      O1582   1.372       .  S
O1580      H1584   0.992       .  S
O1582      H1583   0.992       .  S
C1585      C1590   1.415       .  A
C1586      C1587   1.410       .  A
C1586      H1591   1.083       .  S
C1587      C1588   1.411       .  A
C1587      O1592   1.371       .  S
C1589      C1590   1.392       .  A
C1589      H1593   1.084       .  S
C1590      O1594   1.373       .  S
O1592      H1596   0.992       .  S
O1594      H1595   0.992       .  S
C1597      C1598   1.405       .  A
C1597      C1602   1.410       .  A
C1598      C1599   1.401       .  A
C1598      H1603   1.084       .  S
C1599      C1600   1.409       .  A
C1599      O1604   1.372       .  S
C1600      C1601   1.407       .  A
C1601      C1602   1.405       .  A
C1601      H1605   1.083       .  S
O1604      H1608   0.992       .  S
O1606      H1607   0.992       .  S
C1609      C1610   1.398   1_545  A
C1609      C1614   1.412       .  A
C1610      C2187   1.390       .  A
C1610      H2191   1.084       .  S
C1611      C2186   1.390       .  A
C1611      C2188   1.414       .  A
C1611      O1616   1.371       .  S
C1612      C2187   1.414   1_545  A
C1612      C1830   1.484   1_556  S
C1613      H1617   1.083       .  S
C1614      O1618   1.372       .  S
H1615      C2186   1.084       .  S
O1616      H1620   0.992       .  S
C1621      C1622   1.407       .  A
C1622      C1623   1.409       .  A
C1622      H1627   1.083       .  S
C1623      C1624   1.409       .  A
C1623      O1628   1.371       .  S
C1624      C1625   1.402       .  A
C1625      H1629   1.084   1_545  S
C1626      O2206   1.374   1_545  S
O1628      H1632   0.992       .  S
O1630      C2202   1.373       .  S
O1630      H1631   0.992       .  S
C1633      C1634   1.409       .  A
C1633      C1638   1.406       .  A
C1634      C1635   1.406       .  A
C1634      H1639   1.083       .  S
C1635      C1636   1.408       .  A
C1635      O1640   1.371       .  S
C1636      C1637   1.406       .  A
C1637      C1638   1.394       .  A
C1637      H1641   1.084       .  S
C1638      O1642   1.372       .  S
O1640      H1644   0.992       .  S
O1642      H2219   0.992       .  S
H1643      O2218   0.992       .  S
C1645      C1646   1.402       .  A
C1645      C1650   1.412       .  A
C1646      C1647   1.398       .  A
C1646      H1651   1.084       .  S
C1647      C1648   1.408       .  A
C1647      O1652   1.372       .  S
C1648      C1649   1.399       .  A
C1649      C1650   1.402       .  A
C1649      H1653   1.083       .  S
C1650      O1654   1.372       .  S
O1652      H1656   0.989       .  S
O1654      H1655   0.992       .  S
C1657      C1658   1.402       .  A
C1657      C2238   1.412       .  A
C1658      C1659   1.401       .  A
C1658      H1663   1.084       .  S
C1659      C2236   1.412       .  A
C1659      O1664   1.372       .  S
C1660      C2235   1.412   1_545  A
C1660      C1661   1.403       .  A
C1661      C1662   1.405       .  A
C1661      H1665   1.083       .  S
C1662      C2233   1.412   1_545  A
C1662      O1666   1.372       .  S
O1664      H1668   0.992       .  S
O1666      H1667   0.992       .  S
C1669      C1670   1.404       .  A
C1669      C1674   1.413       .  A
C1670      C1671   1.395       .  A
C1670      H1675   1.084       .  S
C1671      C1672   1.409       .  A
C1671      O1676   1.373       .  S
C1672      C1673   1.402       .  A
C1673      C1674   1.406       .  A
C1673      H1677   1.083       .  S
C1674      O1678   1.372       .  S
O1676      H1680   0.992       .  S
O1678      H1679   0.992       .  S
C1681      C1682   1.399       .  A
C1681      C1686   1.415       .  A
C1682      C1683   1.389       .  A
C1682      H1687   1.084       .  S
C1683      C1684   1.419       .  A
C1683      O1688   1.373       .  S
C1684      C1685   1.408       .  A
C1685      C1686   1.412       .  A
C1685      H1689   1.083       .  S
C1686      O1690   1.372       .  S
O1688      H1692   0.993       .  S
O1690      H1691   0.992       .  S
C1693      C1694   1.401       .  A
C1693      C1698   1.411       .  A
C1694      C1695   1.391       .  A
C1694      H1699   1.084       .  S
C1695      C1696   1.412       .  A
C1695      O1700   1.373       .  S
C1696      C1697   1.406       .  A
C1697      C1698   1.407       .  A
O1700      H1704   0.992       .  S
C1705      C1706   1.406       .  A
C1705      C1710   1.410       .  A
C1706      C1707   1.407       .  A
C1706      H1711   1.083       .  S
C1707      C1708   1.409       .  A
C1707      O1712   1.369       .  S
C1708      C1709   1.403       .  A
C1709      C1710   1.391       .  A
C1710      O1714   1.374       .  S
O1712      H1716   0.992       .  S
C1717      C1718   1.405       .  A
C1717      C1722   1.411       .  A
C1718      C1719   1.400       .  A
C1718      H1723   1.084       .  S
C1719      C1720   1.411       .  A
C1719      O1724   1.372       .  S
C1720      C1721   1.405       .  A
C1721      C1722   1.404       .  A
C1721      H1725   1.083       .  S
C1722      O1726   1.372       .  S
O1724      H1728   0.992       .  S
O1726      H1727   0.992       .  S
C1729      C2018   1.408       .  A
C1729      C1734   1.403       .  A
C1729      C2281   1.484       .  S
C1730      C2017   1.408       .  A
C1730      C1731   1.409       .  A
C1730      H1735   1.083       .  S
C1731      C1732   1.404       .  A
C1731      C2005   1.488       .  S
C1732      C2021   1.404       .  A
C1732      H1736   1.084       .  S
C1733      C2020   1.404       .  A
C1733      C1734   1.396       .  A
C1733      C2269   1.482       .  S
C1734      H1737   1.083       .  S
C1738      C1739   1.408       .  A
C1738      C1743   1.407       .  A
C1738      C1957   1.486       .  S
C1739      C1740   1.403       .  A
C1739      H1744   1.084       .  S
C1740      C1741   1.401       .  A
C1740      C2008   1.488       .  S
C1741      C1742   1.410       .  A
C1741      H1745   1.084       .  S
C1742      C1743   1.404       .  A
C1742      C1969   1.493       .  S
C1743      H1746   1.082       .  S
C1747      C1748   1.408       .  A
C1747      C1752   1.402       .  A
C1747      C1921   1.482       .  S
C1748      C1749   1.406       .  A
C1748      H1753   1.084       .  S
C1749      C1750   1.405       .  A
C1749      C1945   1.487       .  S
C1750      C1751   1.406       .  A
C1750      H1754   1.084       .  S
C1751      C1752   1.401       .  A
C1751      C1933   1.481       .  S
C1752      H1755   1.084       .  S
C1756      C1757   1.409       .  A
C1756      C1761   1.405       .  A
C1756      C1912   1.482       .  S
C1757      C1758   1.408       .  A
C1757      H1762   1.083       .  S
C1758      C1759   1.405       .  A
C1758      C1948   1.486       .  S
C1759      C1760   1.405       .  A
C1759      H1763   1.084       .  S
C1760      C1761   1.395       .  A
C1760      C1897   1.483       .  S
C1761      H1764   1.084       .  S
C1765      C1766   1.405       .  A
C1765      C1770   1.404       .  A
C1765      C1864   1.476       .  S
C1766      C1767   1.405       .  A
C1766      H1771   1.084       .  S
C1767      C1768   1.403       .  A
C1768      C1769   1.409       .  A
C1768      H1772   1.084       .  S
C1769      C1770   1.403       .  A
C1769      C1876   1.487       .  S
C1770      H1773   1.084       .  S
C1774      C1775   1.408       .  A
C1774      C1779   1.403       .  A
C1774      C1849   1.482       .  S
C1775      C1776   1.410       .  A
C1775      H1780   1.083       .  S
C1776      C1777   1.406       .  A
C1776      C1888   1.489       .  S
C1777      C1778   1.405       .  A
C1777      H1781   1.083       .  S
C1778      C1779   1.394       .  A
C1778      C1840   1.486       .  S
C1779      H1782   1.084       .  S
O1783      C1794   1.296       .  A
O1784      C1795   1.298       .  A
O1784     Zr1818   2.476   1_565  S
O1785      C1796   1.297       .  A
O1786      C1797   1.300       .  A
O1786     Zr1791   2.484       .  S
O1787      C1797   1.283       .  A
O1787     Zr1821   2.392       .  S
O1788      C1796   1.289       .  A
O1789      C1795   1.286       .  A
O1789     Zr1791   2.394       .  S
O1790      C1794   1.288       .  A
Zr1791     O1792   2.333       .  S
Zr1791     O1801   2.338       .  S
Zr1791     O1799   2.342       .  S
O1792     Zr1818   2.335   1_565  S
O1792     Zr1821   2.334       .  S
C1794      C1996   1.479       .  S
C1795      C1837   1.484       .  S
C1796      C1924   1.480       .  S
C1797      C1972   1.493       .  S
H1798      O1799   0.965       .  S
O1799     Zr1818   2.338   1_565  S
H1800      O1801   0.966       .  S
O1801     Zr1819   2.338       .  S
O1801     Zr1821   2.336       .  S
O1802      C1825   1.296       .  A
O1803     Zr2107   2.473   1_545  S
O1804     Zr1820   2.456       .  S
O1805      C1828   1.293       .  A
O1805     Zr1821   2.450       .  S
O1806      C2117   1.294       .  A
O1806     Zr1821   2.457   1_556  S
O1807     Zr1820   2.478       .  S
O1808     Zr1822   2.462       .  S
O1809      C1832   1.294   1_554  A
O1809     Zr1822   2.454       .  S
O1810      C1831   1.286       .  A
O1810     Zr1820   2.404       .  S
O1811     Zr1821   2.412       .  S
O1812      C1827   1.290       .  A
O1813      C1830   1.285   1_566  A
O1814      C1829   1.287       .  A
O1814     Zr2107   2.403       .  S
O1815      C1828   1.290       .  A
O1815     Zr1818   2.426   1_565  S
O1816      C1825   1.289       .  A
O1816     Zr1822   2.417       .  S
O1817      C1826   1.287       .  A
O1817     Zr2110   2.407       .  S
Zr1818     O1836   2.346       .  S
Zr1819     O2091   2.473   1_564  S
Zr1819     O2102   2.403   1_554  S
Zr1819     O1823   2.340       .  S
Zr1821     O1823   2.333       .  S
Zr1821     O1836   2.335   1_565  S
Zr1822     O2105   2.407   1_554  S
Zr1822     O1824   2.340       .  S
Zr1822     O1834   2.333       .  S
C1825      C1960   1.473       .  S
C1826      C1873   1.488       .  S
C1827      C1861   1.485       .  S
C1828      C1936   1.468       .  S
C1829      C1852   1.474       .  S
C1829      O2094   1.294       .  A
C1831      C1984   1.479       .  S
C1832      C2197   1.478       .  S
C1837      C1838   1.407       .  A
C1837      C1842   1.408       .  A
C1838      C1839   1.391       .  A
C1838      H1843   1.084       .  S
C1839      C1840   1.407       .  A
C1839      O1844   1.373       .  S
C1840      C1841   1.410       .  A
C1841      C1842   1.406       .  A
C1841      H1845   1.083       .  S
C1842      O1846   1.370       .  S
O1844      H1848   0.992       .  S
O1846      H1847   0.992       .  S
C1849      C1850   1.403       .  A
C1849      C1854   1.410       .  A
C1850      C1851   1.388       .  A
C1850      H1855   1.084       .  S
C1851      C1852   1.408       .  A
C1851      O1856   1.374       .  S
C1852      C1853   1.406       .  A
C1853      C1854   1.408       .  A
C1853      H1857   1.084       .  S
C1854      O1858   1.371       .  S
O1856      H1860   0.992       .  S
O1858      H1859   0.992       .  S
C1861      C1866   1.415       .  A
C1862      C1863   1.405       .  A
C1862      H1867   1.083       .  S
C1863      C1864   1.407       .  A
C1863      O1868   1.371       .  S
C1865      C1866   1.395       .  A
C1865      H1869   1.084       .  S
C1866      O1870   1.372       .  S
O1868      H1872   0.992       .  S
O1870      H1871   0.992       .  S
C1873      C1878   1.415       .  A
C1874      C1875   1.410       .  A
C1874      H1879   1.083       .  S
C1875      C1876   1.411       .  A
C1875      O1880   1.371       .  S
C1877      C1878   1.392       .  A
C1877      H1881   1.084       .  S
C1878      O1882   1.373       .  S
O1880      H1884   0.992       .  S
O1882      H1883   0.992       .  S
C1885      C1886   1.405       .  A
C1885      C1890   1.410       .  A
C1886      C1887   1.401       .  A
C1886      H1891   1.084       .  S
C1887      C1888   1.409       .  A
C1887      O1892   1.372       .  S
C1888      C1889   1.407       .  A
C1889      C1890   1.405       .  A
C1889      H1893   1.083       .  S
O1892      H1896   0.992       .  S
O1894      H1895   0.992       .  S
C1897      C1898   1.398       .  A
C1897      C1902   1.412       .  A
C1899      O1904   1.371       .  S
C1900      C2189   1.406       .  A
C1901      C2188   1.406       .  A
C1901      C2190   1.410       .  A
C1901      H1905   1.083   1_556  S
C1902      C2189   1.410       .  A
C1902      O1906   1.372       .  S
O1904      H1908   0.992       .  S
O1906      H2195   0.992       .  S
H1907      O2194   0.992       .  S
C1909      C1910   1.407       .  A
C1909      C2202   1.410       .  A
C1909      C2120   1.478       .  S
C1910      C1911   1.409       .  A
C1910      H1915   1.083       .  S
C1911      C1912   1.409       .  A
C1911      O1916   1.371       .  S
C1912      C1913   1.402       .  A
C1913      C2202   1.388       .  A
C1913      H1917   1.084       .  S
C1914      C2197   1.410       .  A
C1914      C2201   1.388       .  A
O1916      H1920   0.992       .  S
O1918      H1919   0.992   1_565  S
C1921      C1922   1.409       .  A
C1921      C1926   1.406       .  A
C1922      C1923   1.406       .  A
C1922      H1927   1.083       .  S
C1923      C1924   1.408       .  A
C1923      O1928   1.371       .  S
C1924      C1925   1.406       .  A
C1925      C1926   1.394       .  A
C1925      H1929   1.084       .  S
C1926      O1930   1.372   1_565  S
O1928      H1932   0.992       .  S
C1933      C1934   1.402       .  A
C1933      C1938   1.412       .  A
C1934      C1935   1.398       .  A
C1934      H1939   1.084       .  S
C1935      C1936   1.408       .  A
C1935      O1940   1.372       .  S
C1936      C1937   1.399       .  A
C1937      C1938   1.402       .  A
C1937      H1941   1.083       .  S
C1938      O1942   1.372       .  S
O1940      H1944   0.989       .  S
O1942      H1943   0.992       .  S
C1945      C1946   1.402       .  A
C1946      C1947   1.401       .  A
C1946      H1951   1.084       .  S
C1947      O1952   1.372       .  S
C1948      C1949   1.403       .  A
C1949      C1950   1.405       .  A
C1949      H1953   1.083       .  S
C1950      O1954   1.372       .  S
O1952      H1956   0.992       .  S
O1954      H1955   0.992       .  S
C1957      C1958   1.404       .  A
C1957      C1962   1.413       .  A
C1958      C1959   1.395       .  A
C1958      H1963   1.084       .  S
C1959      C1960   1.409       .  A
C1959      O1964   1.373       .  S
C1960      C1961   1.402       .  A
C1961      C1962   1.406       .  A
C1961      H1965   1.083       .  S
C1962      O1966   1.372       .  S
O1964      H1968   0.992       .  S
O1966      H1967   0.992       .  S
C1969      C1970   1.399       .  A
C1969      C1974   1.415       .  A
C1970      C1971   1.389       .  A
C1970      H1975   1.084       .  S
C1971      C1972   1.419       .  A
C1971      O1976   1.373       .  S
C1972      C1973   1.408       .  A
C1973      C1974   1.412       .  A
C1973      H1977   1.083       .  S
C1974      O1978   1.372       .  S
O1976      H1980   0.993       .  S
O1978      H1979   0.992       .  S
C1981      C1982   1.401       .  A
C1981      C1986   1.411       .  A
C1981      C2021   1.482       .  S
C1982      C1983   1.391       .  A
C1982      H1987   1.084       .  S
C1983      C1984   1.412       .  A
C1983      O1988   1.373       .  S
C1984      C1985   1.406       .  A
C1985      C1986   1.407       .  A
C1986      O2278   1.372   1_554  S
O1988      H1992   0.992       .  S
O1990      C2274   1.372       .  S
C1993      C1994   1.406       .  A
C1993      C1998   1.410       .  A
C1993      C2017   1.484       .  S
C1994      C1995   1.407       .  A
C1994      H1999   1.083   1_554  S
C1995      C1996   1.409       .  A
C1995      O2000   1.369   1_554  S
C1996      C1997   1.403       .  A
C1997      C1998   1.391       .  A
C1998      O2002   1.374       .  S
O2000      H2004   0.992       .  S
C2005      C2006   1.405       .  A
C2005      C2010   1.411       .  A
C2006      C2007   1.400       .  A
C2006      H2011   1.084       .  S
C2007      C2008   1.411       .  A
C2007      O2012   1.372       .  S
C2008      C2009   1.405       .  A
C2009      C2010   1.404       .  A
C2009      H2013   1.083       .  S
C2010      O2014   1.372       .  S
O2012      H2016   0.992       .  S
O2014      H2015   0.992       .  S
C2017      C2022   1.403       .  A
C2018      C2019   1.409       .  A
C2018      H2023   1.083       .  S
C2019      C2020   1.404       .  A
C2019      C2293   1.488       .  S
C2020      H2024   1.084       .  S
C2021      C2022   1.396       .  A
C2022      H2025   1.083       .  S
C2026      C2027   1.408       .  A
C2026      C2031   1.407       .  A
C2026      C2245   1.486       .  S
C2027      C2028   1.403       .  A
C2027      H2032   1.084       .  S
C2028      C2029   1.401       .  A
C2028      C2296   1.488       .  S
C2029      C2030   1.410       .  A
C2029      H2033   1.084       .  S
C2030      C2031   1.404       .  A
C2030      C2257   1.493       .  S
C2031      H2034   1.082       .  S
C2035      C2036   1.408       .  A
C2035      C2040   1.402       .  A
C2035      C2209   1.482       .  S
C2036      C2037   1.406       .  A
C2036      H2041   1.084       .  S
C2037      C2038   1.405       .  A
C2037      C2233   1.487       .  S
C2038      C2039   1.406       .  A
C2038      H2042   1.084       .  S
C2039      C2040   1.401       .  A
C2039      C2221   1.481       .  S
C2040      H2043   1.084       .  S
C2044      C2045   1.409       .  A
C2044      C2049   1.405       .  A
C2044      C2200   1.482       .  S
C2045      C2046   1.408       .  A
C2045      H2050   1.083       .  S
C2046      C2047   1.405       .  A
C2046      C2236   1.486       .  S
C2047      C2048   1.405       .  A
C2047      H2051   1.084       .  S
C2048      C2049   1.395       .  A
C2048      C2185   1.483       .  S
C2049      H2052   1.084       .  S
C2053      C2054   1.405       .  A
C2053      C2058   1.404       .  A
C2053      C2152   1.476       .  S
C2054      C2055   1.405       .  A
C2054      H2059   1.084       .  S
C2055      C2056   1.403       .  A
C2056      C2057   1.409       .  A
C2056      H2060   1.084       .  S
C2057      C2058   1.403       .  A
C2057      C2164   1.487       .  S
C2058      H2061   1.084       .  S
C2062      C2063   1.408       .  A
C2062      C2067   1.403       .  A
C2062      C2137   1.482       .  S
C2063      C2064   1.410       .  A
C2063      H2068   1.083       .  S
C2064      C2065   1.406       .  A
C2064      C2176   1.489       .  S
C2065      C2066   1.405       .  A
C2065      H2069   1.083       .  S
C2066      C2067   1.394       .  A
C2066      C2128   1.486       .  S
C2067      H2070   1.084       .  S
O2071      C2082   1.296       .  A
O2072      C2083   1.298       .  A
O2072     Zr2106   2.476   1_565  S
O2073      C2084   1.297       .  A
O2074      C2085   1.300       .  A
O2074     Zr2079   2.484       .  S
O2075      C2085   1.283       .  A
O2075     Zr2109   2.392       .  S
O2076      C2084   1.289       .  A
O2077      C2083   1.286       .  A
O2077     Zr2079   2.394       .  S
O2078      C2082   1.288       .  A
Zr2079     O2080   2.333       .  S
Zr2079     O2089   2.338       .  S
Zr2079     O2087   2.342       .  S
O2080     Zr2106   2.334   1_565  S
O2080     Zr2109   2.334       .  S
C2082      C2284   1.479       .  S
C2083      C2125   1.484       .  S
C2084      C2212   1.481       .  S
C2085      C2260   1.493       .  S
H2086      O2087   0.965       .  S
O2087     Zr2106   2.338   1_565  S
H2088      O2089   0.966       .  S
O2089     Zr2107   2.338       .  S
O2089     Zr2109   2.336       .  S
O2090      C2113   1.296       .  A
O2092     Zr2108   2.456       .  S
O2093      C2116   1.293       .  A
O2093     Zr2109   2.450       .  S
O2094     Zr2109   2.457       .  S
O2095     Zr2108   2.478       .  S
O2096     Zr2110   2.462       .  S
O2097      C2120   1.294       .  A
O2097     Zr2110   2.454       .  S
O2098      C2119   1.286       .  A
O2098     Zr2108   2.404       .  S
O2099     Zr2109   2.412       .  S
O2100      C2115   1.290       .  A
O2101      C2118   1.285   1_565  A
O2102      C2117   1.287       .  A
O2103      C2116   1.290       .  A
O2103     Zr2106   2.426   1_565  S
O2104      C2113   1.289       .  A
O2104     Zr2110   2.417       .  S
O2105      C2114   1.287       .  A
Zr2106     O2124   2.346       .  S
Zr2107     O2111   2.340       .  S
Zr2109     O2111   2.333       .  S
Zr2109     O2124   2.335   1_565  S
Zr2110     O2112   2.340       .  S
Zr2110     O2122   2.333       .  S
C2113      C2248   1.473       .  S
C2114      C2161   1.488       .  S
C2115      C2149   1.485       .  S
C2116      C2224   1.468       .  S
C2117      C2140   1.474       .  S
C2119      C2272   1.479       .  S
C2125      C2126   1.407       .  A
C2125      C2130   1.408       .  A
C2126      C2127   1.391       .  A
C2126      H2131   1.084       .  S
C2127      C2128   1.407       .  A
C2127      O2132   1.373       .  S
C2128      C2129   1.410       .  A
C2129      C2130   1.406       .  A
C2129      H2133   1.083       .  S
C2130      O2134   1.370       .  S
O2132      H2136   0.992       .  S
O2134      H2135   0.992       .  S
C2137      C2138   1.403       .  A
C2137      C2142   1.410       .  A
C2138      C2139   1.388       .  A
C2138      H2143   1.084       .  S
C2139      C2140   1.408       .  A
C2139      O2144   1.374       .  S
C2140      C2141   1.406       .  A
C2141      C2142   1.408       .  A
C2141      H2145   1.084       .  S
C2142      O2146   1.371       .  S
O2144      H2148   0.992       .  S
O2146      H2147   0.992       .  S
C2149      C2154   1.415       .  A
C2150      C2151   1.405       .  A
C2150      H2155   1.083       .  S
C2151      C2152   1.407       .  A
C2151      O2156   1.371       .  S
C2153      C2154   1.395       .  A
C2153      H2157   1.084       .  S
C2154      O2158   1.372       .  S
O2156      H2160   0.992       .  S
O2158      H2159   0.992       .  S
C2161      C2166   1.415       .  A
C2162      C2163   1.410       .  A
C2162      H2167   1.083       .  S
C2163      C2164   1.411       .  A
C2163      O2168   1.371       .  S
C2165      C2166   1.392       .  A
C2165      H2169   1.084       .  S
C2166      O2170   1.373       .  S
O2168      H2172   0.992       .  S
O2170      H2171   0.992       .  S
C2173      C2174   1.405       .  A
C2173      C2178   1.410       .  A
C2174      C2175   1.401       .  A
C2174      H2179   1.084       .  S
C2175      C2176   1.409       .  A
C2175      O2180   1.372       .  S
C2176      C2177   1.407       .  A
C2177      C2178   1.405       .  A
C2177      H2181   1.083       .  S
O2180      H2184   0.992       .  S
O2182      H2183   0.992       .  S
C2185      C2186   1.398       .  A
C2185      C2190   1.412       .  A
C2187      O2192   1.371       .  S
C2189      H2193   1.083       .  S
C2190      O2194   1.372       .  S
O2192      H2196   0.992       .  S
C2197      C2198   1.407       .  A
C2198      C2199   1.409       .  A
C2198      H2203   1.083       .  S
C2199      C2200   1.409       .  A
C2199      O2204   1.371       .  S
C2200      C2201   1.402       .  A
C2201      H2205   1.084       .  S
O2204      H2208   0.992       .  S
O2206      H2207   0.987       .  S
C2209      C2210   1.409       .  A
C2209      C2214   1.406       .  A
C2210      C2211   1.406       .  A
C2210      H2215   1.083       .  S
C2211      C2212   1.408       .  A
C2211      O2216   1.371       .  S
C2212      C2213   1.406       .  A
C2213      C2214   1.394       .  A
C2213      H2217   1.084       .  S
C2214      O2218   1.372   1_565  S
O2216      H2220   0.992       .  S
C2221      C2222   1.402       .  A
C2221      C2226   1.412       .  A
C2222      C2223   1.398       .  A
C2222      H2227   1.084       .  S
C2223      C2224   1.408       .  A
C2223      O2228   1.372       .  S
C2224      C2225   1.399       .  A
C2225      C2226   1.402       .  A
C2225      H2229   1.083       .  S
C2226      O2230   1.372       .  S
O2228      H2232   0.989       .  S
O2230      H2231   0.992       .  S
C2233      C2234   1.402       .  A
C2234      C2235   1.401       .  A
C2234      H2239   1.084       .  S
C2235      O2240   1.372       .  S
C2236      C2237   1.403       .  A
C2237      C2238   1.405       .  A
C2237      H2241   1.083       .  S
C2238      O2242   1.372       .  S
O2240      H2244   0.992       .  S
O2242      H2243   0.992       .  S
C2245      C2246   1.404       .  A
C2245      C2250   1.413       .  A
C2246      C2247   1.395       .  A
C2246      H2251   1.084       .  S
C2247      C2248   1.409       .  A
C2247      O2252   1.373       .  S
C2248      C2249   1.402       .  A
C2249      C2250   1.406       .  A
C2249      H2253   1.083       .  S
C2250      O2254   1.372       .  S
O2252      H2256   0.992       .  S
O2254      H2255   0.992       .  S
C2257      C2258   1.399       .  A
C2257      C2262   1.415       .  A
C2258      C2259   1.389       .  A
C2258      H2263   1.084       .  S
C2259      C2260   1.419       .  A
C2259      O2264   1.373       .  S
C2260      C2261   1.408       .  A
C2261      C2262   1.412       .  A
C2261      H2265   1.083       .  S
C2262      O2266   1.372       .  S
O2264      H2268   0.993       .  S
O2266      H2267   0.992       .  S
C2269      C2270   1.401       .  A
C2269      C2274   1.411       .  A
C2270      C2271   1.391       .  A
C2270      H2275   1.084       .  S
C2271      C2272   1.412       .  A
C2271      O2276   1.373       .  S
C2272      C2273   1.406       .  A
C2273      C2274   1.407       .  A
O2276      H2280   0.992       .  S
C2281      C2282   1.406       .  A
C2281      C2286   1.410       .  A
C2282      C2283   1.407       .  A
C2282      H2287   1.083       .  S
C2283      C2284   1.409       .  A
C2283      O2288   1.369       .  S
C2284      C2285   1.403       .  A
C2285      C2286   1.391       .  A
C2286      O2290   1.374       .  S
O2288      H2292   0.992       .  S
C2293      C2294   1.405       .  A
C2293      C2298   1.411       .  A
C2294      C2295   1.400       .  A
C2294      H2299   1.084       .  S
C2295      C2296   1.411       .  A
C2295      O2300   1.372       .  S
C2296      C2297   1.405       .  A
C2297      C2298   1.404       .  A
C2297      H2301   1.083       .  S
C2298      O2302   1.372       .  S
O2300      H2304   0.992       .  S
O2302      H2303   0.992       .  S
