geometry optimzed in LAMMPS
_audit_creation_date              2020-12-01 
_audit_creation_method            'lammps2cif' 
_symmetry_space_group_name_H-M    'P1' 
_symmetry_Int_Tables_number       1 
_symmetry_cell_setting            triclinic 
loop_ 
_symmetry_equiv_pos_as_xyz 
  x,y,z 
_cell_length_a                    35.65948683 
_cell_length_b                    35.959381136332745 
_cell_length_c                    33.39120193914954 
_cell_angle_alpha                 93.44758771802142 
_cell_angle_beta                  94.01539710079618 
_cell_angle_gamma                 121.48869179312517 
loop_ 
_atom_site_label 
_atom_site_type_symbol 
_atom_site_fract_x 
_atom_site_fract_y 
_atom_site_fract_z 
_atom_site_charge 
C1          C  0.36961482  0.13326078  0.96716852     0.81100
N2          N  0.32553822  0.10957817  0.97036923    -0.77200
C3          C  0.30202482  0.12954862  0.97273249     0.83600
N4          N  0.32371868  0.17409010  0.97202403    -0.77100
C5          C  0.36817261  0.19815847  0.96920911     0.83700
N6          N  0.39039700  0.17715302  0.96625121    -0.78900
C7          C  0.36907177  0.17044395  0.21096612     0.80900
N8          N  0.38480138  0.21403859  0.21252127    -0.77200
C9          C  0.35666136  0.22857328  0.21590175     0.83600
N10         N  0.31271310  0.19940737  0.21587876    -0.77100
C11         C  0.29675013  0.15576939  0.21367697     0.83700
N12         N  0.32511056  0.14151326  0.21110639    -0.78900
C13         C  0.13465206  0.33950648  0.33936057     0.81100
N14         N  0.10977358  0.29501366  0.33808289    -0.77200
C15         C  0.12916587  0.27112170  0.34032605     0.83600
N16         N  0.17409510  0.29193209  0.34445028    -0.77100
C17         C  0.19950583  0.33628541  0.34543114     0.83700
N18         N  0.17960423  0.35983378  0.34352663    -0.78900
C19         C  0.11400927  0.33798155  0.09530867     0.81100
N20         N  0.15882605  0.36487202  0.10282214    -0.77200
C21         C  0.18460164  0.34761729  0.10766966     0.83600
N22         N  0.16523620  0.30352779  0.10562486    -0.77100
C23         C  0.12070836  0.27652080  0.09855841     0.83700
N24         N  0.09517889  0.29392110  0.09363963    -0.78900
O25         O  0.08497905  0.98618152  0.45266821    -0.79200
O26         O  0.44035880  0.01960042  0.39379968    -0.79300
O27         O  0.05871347  0.08255548  0.39690974    -0.79300
O28         O  0.44747216  0.45841524  0.49634530    -0.79200
O29         O  0.00575184  0.05716491  0.34627952    -0.79300
O30         O  0.01913959  0.48714355  0.49405856    -0.79300
O31         O  0.47675522  0.02993094  0.45417431    -0.79200
O32         O  0.09208593  0.04816135  0.44549219    -0.79300
C33         C  0.10940616  0.02755076  0.45724472     1.10400
C34         C  0.45398740  0.03860099  0.42985784     1.10300
C35         C  0.03784485  0.08939936  0.36937886     1.10500
C36         C  0.48624479  0.47748100  0.01460930     1.10300
O37         O  0.51078794  0.40914685  0.46720843    -0.79200
O38         O  0.48763178  0.97026679  0.31725277    -0.79300
O39         O  0.08302483  0.48728074  0.37593180    -0.79300
O40         O  0.40653929  0.44650100  0.42210882    -0.79200
O41         O  0.41630665  0.43175633  0.36123830    -0.79300
O42         O  0.02263656  0.42675935  0.38858374    -0.79300
O43         O  0.45147145  0.40539548  0.43829859    -0.79200
O44         O  0.05468270  0.02914156  0.32692562    -0.79300
Co45       Co  0.01852460  0.45632575  0.43809462     1.51500
Co46       Co  0.46466667  0.99340402  0.35694246     1.51700
Co47       Co  0.06903743  0.03476649  0.38776709     1.51600
Co48       Co  0.46889248  0.47106925  0.44576722     1.51500
O49         O  0.50688044  0.49261716  0.40090949    -1.41200
C50         C  0.46957397  0.38633540  0.45552617     1.10400
C51         C  0.52208587  0.49834123  0.30343686     1.10500
C52         C  0.05886590  0.44529024  0.37325046     1.10400
C53         C  0.39016334  0.42658778  0.38705113     1.10400
O54         O  0.07868211  0.02697807  0.19076407    -0.79200
O55         O  0.43073966  0.04510897  0.14584077    -0.79300
O56         O  0.05238916  0.08134968  0.14687961    -0.79300
O57         O  0.51245347  0.52784521  0.24552792    -0.79200
O58         O  0.99720745  0.06552299  0.10066710    -0.79300
O59         O  0.01430762  0.46900483  0.23583283    -0.79300
O60         O  0.47006231  0.06336998  0.20581653    -0.79200
O61         O  0.09971632  0.04321693  0.13016644    -0.79300
C62         C  0.10977926  0.04548238  0.16770128     1.10400
C63         C  0.44767908  0.06994021  0.17922318     1.10300
C64         C  0.03400637  0.09351214  0.12155381     1.10500
C65         C  0.51944847  0.50011013  0.25975033     1.10300
O66         O  0.45525612  0.41914943  0.16601306    -0.79200
O67         O  0.45929288  0.97126362  0.07706379    -0.79300
O68         O  0.02962441  0.46017968  0.11910076    -0.79300
O69         O  0.39218971  0.47778361  0.18494941    -0.79200
O70         O  0.39607743  0.45237949  0.12501012    -0.79300
O71         O  0.04012454  0.43805730  0.17655067    -0.79300
O72         O  0.43340332  0.43922298  0.21913020    -0.79200
O73         O  0.02855143  0.02068037  0.07682828    -0.79300
Co74       Co  0.01409092  0.47229588  0.17611336     1.51500
Co75       Co  0.44754035  0.00746685  0.11417890     1.51700
Co76       Co  0.03989274  0.02166451  0.13687563     1.51600
Co77       Co  0.45474388  0.50294473  0.21158973     1.51500
O78         O  0.48333605  0.50324146  0.16080159    -1.41200
C79         C  0.43106968  0.40930922  0.19429537     1.10400
C80         C  0.49226423  0.49015301  0.05811781     1.10500
C81         C  0.03864952  0.43546105  0.13856451     1.10400
C82         C  0.37345537  0.45239337  0.15221254     1.10400
C83         C  0.05825954  0.19891937  0.08056613     0.24500
C84         C  0.10007048  0.22930932  0.10164777    -0.23600
C85         C  0.12083319  0.21454140  0.12795858     0.19400
C86         C  0.09943162  0.17052739  0.13435056     0.24400
C87         C  0.05685278  0.14011211  0.11427202    -0.23600
C88         C  0.03691651  0.15469649  0.08659521     0.19300
F89         F  0.99669272  0.12640761  0.06530410    -0.13500
F90         F  0.03808670  0.21193650  0.05384341    -0.15900
F91         F  0.12060406  0.15805603  0.16055843    -0.15900
F92         F  0.16123237  0.24291138  0.14896742    -0.13500
C93         C  0.29784808  0.43999328  0.15629266     0.24500
C94         C  0.32486522  0.42492551  0.14349596    -0.23600
C95         C  0.30553710  0.38526461  0.11808265     0.19400
C96         C  0.26018880  0.36096983  0.10579018     0.24400
C97         C  0.23298312  0.37578977  0.11846190    -0.23600
C98         C  0.25220161  0.41569867  0.14367310     0.19300
F99         F  0.22682057  0.43077934  0.15676445    -0.13500
F100        F  0.31579399  0.47894888  0.17969906    -0.15900
F101        F  0.24300054  0.32316578  0.08072469    -0.15900
F102        F  0.33066148  0.36993796  0.10487993    -0.13500
C103        C  0.03063713  0.36279655  0.12900449     0.24500
C104        C  0.04787009  0.40497772  0.11728089    -0.23600
C105        C  0.08011289  0.42052170  0.09048295     0.19400
C106        C  0.09968006  0.39680886  0.08042427     0.24400
C107        C  0.08608040  0.35683114  0.09610004    -0.23600
C108        C  0.04922612  0.33846157  0.11801142     0.19300
F109        F  0.03411016  0.29910657  0.13238168    -0.13500
F110        F  0.99773749  0.34644171  0.15323600    -0.15900
F111        F  0.13367819  0.41409465  0.05747723    -0.15900
F112        F  0.09585520  0.46060540  0.07751854    -0.13500
C113        C  0.07371222  0.19156914  0.31610949     0.24500
C114        C  0.10242201  0.22462731  0.34726249    -0.23600
C115        C  0.10562845  0.21336005  0.38623180     0.19400
C116        C  0.08194094  0.16957832  0.39385714     0.24400
C117        C  0.05510125  0.13576665  0.36232718    -0.23600
C118        C  0.05040231  0.14731349  0.32348575     0.19300
F119        F  0.02545493  0.11579824  0.29220432    -0.13500
F120        F  0.06979755  0.20194869  0.27826261    -0.15900
F121        F  0.08619393  0.16026230  0.43212966    -0.15900
F122        F  0.13218125  0.24499138  0.41702637    -0.13500
C123        C  0.27368347  0.34852916  0.33193710     0.24500
C124        C  0.24826152  0.35921481  0.35486692    -0.23600
C125        C  0.26956009  0.39138175  0.38826364     0.19400
C126        C  0.31521760  0.41217312  0.39900702     0.24400
C127        C  0.34116974  0.40201317  0.37604089    -0.23600
C128        C  0.31986259  0.37021173  0.34204352     0.19300
F129        F  0.34355643  0.35985645  0.31877018    -0.13500
F130        F  0.25393245  0.31786649  0.29919946    -0.15900
F131        F  0.33405710  0.44319299  0.43154586    -0.15900
F132        F  0.24586617  0.40206332  0.41125493    -0.13500
C133        C  0.11963656  0.43726272  0.34762486     0.24500
C134        C  0.07577200  0.41779812  0.35712425    -0.23600
C135        C  0.05002291  0.37167039  0.35587969     0.19400
C136        C  0.06842764  0.34617893  0.34827767     0.24400
C137        C  0.11326232  0.36591374  0.34155219    -0.23600
C138        C  0.13807042  0.41171953  0.33990708     0.19300
F139        F  0.18081126  0.43236992  0.33194438    -0.13500
F140        F  0.14572818  0.48141467  0.34759750    -0.15900
F141        F  0.04245019  0.30221285  0.34957945    -0.15900
F142        F  0.00724264  0.35090959  0.36380252    -0.13500
C143        C  0.43001367  0.11246305  0.22846187     0.24500
C144        C  0.43637892  0.10348058  0.18866223    -0.23600
C145        C  0.42591567  0.12229449  0.15732482     0.19400
C146        C  0.40696833  0.14722356  0.16524547     0.24400
C147        C  0.39793959  0.15344191  0.20447145    -0.23600
C148        C  0.41050968  0.13688958  0.23613961     0.19300
F149        F  0.40152041  0.14228322  0.27415030    -0.13500
F150        F  0.43899316  0.09447450  0.25945154    -0.15900
F151        F  0.39461681  0.16273081  0.13415586    -0.15900
F152        F  0.43218978  0.11494036  0.11871870    -0.13500
C153        C  0.38793065  0.30598469  0.24526407     0.24500
C154        C  0.37200116  0.27440681  0.21149941    -0.23600
C155        C  0.37102060  0.28666453  0.17262141     0.19400
C156        C  0.38761350  0.33047524  0.16724435     0.24400
C157        C  0.40498886  0.36270200  0.20080851    -0.23600
C158        C  0.40423020  0.35002352  0.23999630     0.19300
F159        F  0.42234211  0.38054856  0.27288082    -0.13500
F160        F  0.38922199  0.29441900  0.28306565    -0.15900
F161        F  0.38840030  0.34169904  0.12906597    -0.15900
F162        F  0.35532037  0.25626079  0.13973217    -0.13500
C163        C  0.21915437  0.13196509  0.22630342     0.24500
C164        C  0.24853147  0.12410683  0.20679247    -0.23600
C165        C  0.23131490  0.08790282  0.17711171     0.19400
C166        C  0.18583509  0.06149770  0.16566672     0.24400
C167        C  0.15665805  0.07013706  0.18416808    -0.23600
C168        C  0.17332827  0.10470388  0.21537840     0.19300
F169        F  0.14553123  0.11368788  0.23340618    -0.13500
F170        F  0.23487006  0.16654282  0.25521292    -0.15900
F171        F  0.17024100  0.02798764  0.13561945    -0.15900
F172        F  0.25858767  0.07979506  0.15702741    -0.13500
C173        C  0.41499173  0.11736154  0.42476359     0.24500
C174        C  0.39414783  0.11146398  0.45998762    -0.23600
C175        C  0.39691582  0.08465766  0.98764315     0.19400
C176        C  0.41973361  0.06349953  0.47953233     0.24400
C177        C  0.43888905  0.06792460  0.44327644    -0.23600
C178        C  0.43669934  0.09543908  0.41626749     0.19300
F179        F  0.45434728  0.09993081  0.38082403    -0.13500
F180        F  0.41230118  0.14262122  0.39743999    -0.15900
F181        F  0.42040161  0.03624180  0.00578372    -0.15900
F182        F  0.37735975  0.07898392  0.02209314    -0.13500
C183        C  0.39680604  0.31303638  0.44831160     0.24500
C184        C  0.44305224  0.33835350  0.45993407    -0.23600
C185        C  0.46363972  0.31726624  0.47626242     0.19400
C186        C  0.43906626  0.27229807  0.48006263     0.24400
C187        C  0.39299005  0.24678994  0.46781584    -0.23600
C188        C  0.37211468  0.26790772  0.45235092     0.19300
F189        F  0.32798459  0.24469733  0.43977387    -0.13500
F190        F  0.37521722  0.33171631  0.43266559    -0.15900
F191        F  0.46073078  0.25384843  0.49614264    -0.15900
F192        F  0.50786633  0.33994031  0.48847058    -0.13500
C193        C  0.18227730  0.03137760  0.46133002     0.24500
C194        C  0.15837405  0.05169299  0.46866510    -0.23600
C195        C  0.18236163  0.09729958  0.48073669     0.19400
C196        C  0.22875983  0.12230476  0.48318342     0.24400
C197        C  0.25276917  0.10249753  0.47364608    -0.23600
C198        C  0.22871893  0.05633668  0.46362709     0.19300
F199        F  0.24967914  0.03516197  0.45389069    -0.13500
F200        F  0.16065787  0.98764829  0.44921146    -0.15900
F201        F  0.24993190  0.16619381  0.49421686    -0.15900
F202        F  0.16074974  0.11816410  0.48913399    -0.13500
C203        C  0.36963842  0.13334634  0.46709233     0.81100
N204        N  0.32556487  0.10966778  0.47030621    -0.77200
C205        C  0.30205881  0.12964398  0.47269130     0.83600
N206        N  0.32375776  0.17418639  0.47199239    -0.77100
C207        C  0.36820872  0.19824967  0.46916488     0.83700
N208        N  0.39042654  0.17723991  0.46618423    -0.78900
C209        C  0.36900648  0.17041016  0.71099975     0.80900
N210        N  0.38473674  0.21400078  0.71248596    -0.77200
C211        C  0.35660578  0.22854794  0.71585638     0.83600
N212        N  0.31266219  0.19939571  0.71588220    -0.77100
C213        C  0.29669656  0.15575971  0.71374165     0.83700
N214        N  0.32505125  0.14149377  0.71119421    -0.78900
C215        C  0.13460663  0.33941511  0.83936231     0.81100
N216        N  0.10974131  0.29492139  0.83808143    -0.77200
C217        C  0.12915000  0.27104508  0.84033367     0.83600
N218        N  0.17407996  0.29187160  0.84446488    -0.77100
C219        C  0.19947688  0.33622479  0.84544721     0.83700
N220        N  0.17956050  0.35975873  0.84353627    -0.78900
C221        C  0.11401476  0.33800478  0.59522890     0.81100
N222        N  0.15883314  0.36488428  0.60274495    -0.77200
C223        C  0.18459722  0.34761975  0.60762695     0.83600
N224        N  0.16521723  0.30353078  0.60561750    -0.77100
C225        C  0.12068909  0.27653555  0.59854530     0.83700
N226        N  0.09517190  0.29394419  0.59358789    -0.78900
O227        O  0.08493544  0.98606958  0.95264874    -0.79200
O228        O  0.44032613  0.01953143  0.89384256    -0.79300
O229        O  0.05867512  0.08245252  0.89692270    -0.79300
O230        O  0.44744900  0.45833853  0.99635475    -0.79200
O231        O  0.00571003  0.05709644  0.84630445    -0.79300
O232        O  0.01911297  0.48706115  0.99405394    -0.79300
O233        O  0.47673308  0.02984030  0.95420598    -0.79200
O234        O  0.09204794  0.04805272  0.94548182    -0.79300
C235        C  0.10936590  0.02743848  0.95722856     1.10400
C236        C  0.45396240  0.03852005  0.92990444     1.10300
C237        C  0.03781879  0.08931897  0.86940048     1.10500
C238        C  0.48626411  0.47755365  0.51460661     1.10300
O239        O  0.51074196  0.40905196  0.96719983    -0.79200
O240        O  0.48755132  0.97018994  0.81724361    -0.79300
O241        O  0.08296239  0.48716819  0.87591060    -0.79300
O242        O  0.40650518  0.44642190  0.92211546    -0.79200
O243        O  0.41626669  0.43167989  0.86123964    -0.79300
O244        O  0.02257259  0.42665456  0.88857339    -0.79300
O245        O  0.45142381  0.40530303  0.93830110    -0.79200
O246        O  0.05461876  0.02904602  0.82692077    -0.79300
Co247      Co  0.01847766  0.45623005  0.93808712     1.51500
Co248      Co  0.46461282  0.99333049  0.85696179     1.51700
Co249      Co  0.06898478  0.03466073  0.88776033     1.51600
Co250      Co  0.46885763  0.47098296  0.94576907     1.51500
O251        O  0.50683653  0.49252456  0.90090219    -1.41200
C252        C  0.46952708  0.38624087  0.95552360     1.10400
C253        C  0.52203541  0.49826512  0.80342162     1.10500
C254        C  0.05879825  0.44517820  0.87323400     1.10400
C255        C  0.39012770  0.42651412  0.88705585     1.10400
O256        O  0.07862752  0.02695828  0.69077932    -0.79200
O257        O  0.43069689  0.04510261  0.64585092    -0.79300
O258        O  0.05234734  0.08137250  0.64691853    -0.79300
O259        O  0.51241754  0.52780212  0.74552810    -0.79200
O260        O  0.99717920  0.06555420  0.60069406    -0.79300
O261        O  0.01425995  0.46895579  0.73580011    -0.79300
O262        O  0.47000967  0.06333670  0.70583147    -0.79200
O263        O  0.09970430  0.04327131  0.63020398    -0.79300
C264        C  0.10974040  0.04549632  0.66773847     1.10400
C265        C  0.44762423  0.06991311  0.67924553     1.10300
C266        C  0.03396727  0.09354102  0.62159613     1.10500
C267        C  0.51940252  0.50005438  0.75973603     1.10300
O268        O  0.45523263  0.41914371  0.66596227    -0.79200
O269        O  0.45928313  0.97130125  0.57704658    -0.79300
O270        O  0.02964284  0.46022390  0.61907253    -0.79300
O271        O  0.39217173  0.47778247  0.68493496    -0.79200
O272        O  0.39606322  0.45239289  0.62499001    -0.79300
O273        O  0.04009710  0.43804498  0.67650375    -0.79300
O274        O  0.43336713  0.43919298  0.71908488    -0.79200
O275        O  0.02854526  0.02073965  0.57684014    -0.79300
Co276      Co  0.01406284  0.47228382  0.67608352     1.51500
Co277      Co  0.44750922  0.00747709  0.61417518     1.51700
Co278      Co  0.03987013  0.02169610  0.63688702     1.51600
Co279      Co  0.45471764  0.50292392  0.71157951     1.51500
O280        O  0.48331986  0.50324507  0.66079279    -1.41200
C281        C  0.43103773  0.40928917  0.69423871     1.10400
C282        C  0.49227075  0.49020706  0.55811528     1.10500
C283        C  0.03865647  0.43548808  0.63852069     1.10400
C284        C  0.37344100  0.45239839  0.65219549     1.10400
C285        C  0.05828587  0.19892617  0.58051353     0.24500
C286        C  0.10003861  0.22933427  0.60168068    -0.23600
C287        C  0.12073175  0.21459799  0.62811117     0.19400
C288        C  0.09932316  0.17058793  0.63451548     0.24400
C289        C  0.05680778  0.14014528  0.61432970    -0.23600
C290        C  0.03693648  0.15470583  0.58655431     0.19300
F291        F  0.99677533  0.12639477  0.56516860    -0.13500
F292        F  0.03818399  0.21192230  0.55368943    -0.15900
F293        F  0.12042313  0.15814685  0.66084231    -0.15900
F294        F  0.16106455  0.24299763  0.64921860    -0.13500
C295        C  0.29784583  0.44003874  0.65619905     0.24500
C296        C  0.32485482  0.42492932  0.64348202    -0.23600
C297        C  0.30552553  0.38522206  0.61814327     0.19400
C298        C  0.26017829  0.36091920  0.60584433     0.24400
C299        C  0.23297830  0.37578410  0.61843129    -0.23600
C300        C  0.25220186  0.41573942  0.64357120     0.19300
F301        F  0.22682964  0.43086505  0.65658357    -0.13500
F302        F  0.31579927  0.47904050  0.67952972    -0.15900
F303        F  0.24298814  0.32306481  0.58085461    -0.15900
F304        F  0.33064941  0.36985979  0.60502064    -0.13500
C305        C  0.03063251  0.36282080  0.62890025     0.24500
C306        C  0.04789602  0.40502389  0.61722343    -0.23600
C307        C  0.08017301  0.42059574  0.59045790     0.19400
C308        C  0.09973520  0.39687973  0.58038722     0.24400
C309        C  0.08609730  0.35687092  0.59601698    -0.23600
C310        C  0.04921463  0.33848336  0.61789262     0.19300
F311        F  0.03405814  0.29910083  0.63221821    -0.13500
F312        F  0.99770519  0.34644206  0.65310148    -0.15900
F313        F  0.13376280  0.41418954  0.55747437    -0.15900
F314        F  0.09594622  0.46070215  0.57753622    -0.13500
C315        C  0.07357741  0.19150451  0.81617191     0.24500
C316        C  0.10242498  0.22455201  0.84727781    -0.23600
C317        C  0.10577951  0.21327962  0.88621546     0.19400
C318        C  0.08209008  0.16950462  0.89385298     0.24400
C319        C  0.05510529  0.13569620  0.86236019    -0.23600
C320        C  0.05026984  0.14725008  0.82355433     0.19300
F321        F  0.02517432  0.11574225  0.79230670    -0.13500
F322        F  0.06952350  0.20188992  0.77835651    -0.15900
F323        F  0.08648063  0.16019363  0.93210025    -0.15900
F324        F  0.13246808  0.24490134  0.91697115    -0.13500
C325        C  0.27364135  0.34841958  0.83198740     0.24500
C326        C  0.24823339  0.35916432  0.85487468    -0.23600
C327        C  0.26954595  0.39138882  0.88822757     0.19400
C328        C  0.31520329  0.41217741  0.89897008     0.24400
C329        C  0.34113807  0.40195411  0.87604584    -0.23600
C330        C  0.31981898  0.37009762  0.84209093     0.19300
F331        F  0.34349959  0.35967988  0.81886260    -0.13500
F332        F  0.25387668  0.31769700  0.79929410    -0.15900
F333        F  0.33406086  0.44325393  0.93146433    -0.15900
F334        F  0.24586669  0.40212617  0.91118225    -0.13500
C335        C  0.11954409  0.43714100  0.84756002     0.24500
C336        C  0.07569727  0.41767939  0.85710904    -0.23600
C337        C  0.04996895  0.37155573  0.85591935     0.19400
C338        C  0.06838141  0.34607025  0.84832478     0.24400
C339        C  0.11320112  0.36580653  0.84154896    -0.23600
C340        C  0.13798463  0.41160311  0.83984919     0.19300
F341        F  0.18070879  0.43225008  0.83183722    -0.13500
F342        F  0.14561215  0.48128686  0.84747365    -0.15900
F343        F  0.04243087  0.30211204  0.84968891    -0.15900
F344        F  0.00720594  0.35079620  0.86389316    -0.13500
C345        C  0.42977361  0.11225658  0.72849073     0.24500
C346        C  0.43630292  0.10342964  0.68871201    -0.23600
C347        C  0.42598433  0.12237482  0.65740612     0.19400
C348        C  0.40704275  0.14730941  0.66533211     0.24400
C349        C  0.39786135  0.15338679  0.70452934    -0.23600
C350        C  0.41026457  0.13667722  0.73617065     0.19300
F351        F  0.40111749  0.14192311  0.77414880    -0.13500
F352        F  0.43859558  0.09412072  0.75944170    -0.15900
F353        F  0.39483699  0.16295316  0.63426423    -0.15900
F354        F  0.43240136  0.11514931  0.61882076    -0.13500
C355        C  0.38781859  0.30595123  0.74519986     0.24500
C356        C  0.37195324  0.27438007  0.71143652    -0.23600
C357        C  0.37104148  0.28664395  0.67255188     0.19400
C358        C  0.38763943  0.33045520  0.66717083     0.24400
C359        C  0.40495386  0.36267623  0.70073658    -0.23600
C360        C  0.40412616  0.34998954  0.73992755     0.19300
F361        F  0.42217825  0.38050702  0.77281790    -0.13500
F362        F  0.38904453  0.29437940  0.78300799    -0.15900
F363        F  0.38848753  0.34168405  0.62898935    -0.15900
F364        F  0.35539716  0.25624584  0.63966355    -0.13500
C365        C  0.21910209  0.13200584  0.72633256     0.24500
C366        C  0.24847673  0.12409673  0.70687798    -0.23600
C367        C  0.23125598  0.08784059  0.67725390     0.19400
C368        C  0.18577891  0.06144249  0.66579825     0.24400
C369        C  0.15660774  0.07013854  0.68423391    -0.23600
C370        C  0.17327652  0.10474967  0.71539783     0.19300
F371        F  0.14548110  0.11378019  0.73336714    -0.13500
F372        F  0.23481891  0.16662911  0.75519041    -0.15900
F373        F  0.17018175  0.02788541  0.63579924    -0.15900
F374        F  0.25852419  0.07967544  0.65722715    -0.13500
C375        C  0.41503514  0.11733775  0.92487545     0.24500
C376        C  0.39413192  0.11138325  0.96006872    -0.23600
C377        C  0.39699116  0.08479750  0.48759572     0.19400
C378        C  0.41965831  0.06336022  0.97957476     0.24400
C379        C  0.43887118  0.06784288  0.94334548    -0.23600
C380        C  0.43673946  0.09541320  0.91637235     0.19300
F381        F  0.45443852  0.09995655  0.88095263    -0.13500
F382        F  0.41240251  0.14265223  0.89758198    -0.15900
F383        F  0.42053376  0.03643728  0.50577778    -0.15900
F384        F  0.37749348  0.07918251  0.52207567    -0.13500
C385        C  0.39675960  0.31293830  0.94832443     0.24500
C386        C  0.44300765  0.33825851  0.95993482    -0.23600
C387        C  0.46360151  0.31717501  0.97625800     0.19400
C388        C  0.43903148  0.27220967  0.98007232     0.24400
C389        C  0.39295130  0.24669787  0.96784232    -0.23600
C390        C  0.37207114  0.26781128  0.95237605     0.19300
F391        F  0.32793841  0.24459838  0.93981122    -0.13500
F392        F  0.37516589  0.33161356  0.93267868    -0.15900
F393        F  0.46070460  0.25376748  0.99614946    -0.15900
F394        F  0.50783187  0.33984960  0.98844806    -0.13500
C395        C  0.18224240  0.03127513  0.96129921     0.24500
C396        C  0.15833362  0.05157998  0.96865508    -0.23600
C397        C  0.18231675  0.09718135  0.98075739     0.19400
C398        C  0.22871652  0.12219111  0.98322046     0.24400
C399        C  0.25273173  0.10239467  0.97366698    -0.23600
C400        C  0.22868538  0.05623930  0.96361216     0.19300
F401        F  0.24965211  0.03507697  0.95385375    -0.13500
F402        F  0.16062703  0.98755340  0.94914424    -0.15900
F403        F  0.24988545  0.16607379  0.99428847    -0.15900
F404        F  0.16069881  0.11803566  0.98917107    -0.13500
C405        C  0.36957113  0.63325660  0.96709924     0.81100
N406        N  0.32550260  0.60959143  0.97033343    -0.77200
C407        C  0.30200284  0.62957530  0.97270239     0.83600
N408        N  0.32370571  0.67411452  0.97196895    -0.77100
C409        C  0.36815398  0.69816406  0.96912357     0.83700
N410        N  0.39036107  0.67714388  0.96615889    -0.78900
C411        C  0.36900554  0.67041489  0.21104028     0.80900
N412        N  0.38473834  0.71400137  0.21243797    -0.77200
C413        C  0.35661637  0.72856386  0.21578041     0.83600
N414        N  0.31267697  0.69942800  0.21585849    -0.77100
C415        C  0.29670730  0.65579474  0.21380019     0.83700
N416        N  0.32505607  0.64151642  0.21129690    -0.78900
C417        C  0.13468023  0.83949384  0.33936174     0.81100
N418        N  0.10980105  0.79500287  0.33809955    -0.77200
C419        C  0.12919031  0.77110780  0.34033797     0.83600
N420        N  0.17411913  0.79191377  0.34444698    -0.77100
C421        C  0.19953152  0.83626684  0.34541506     0.83700
N422        N  0.17963088  0.85981634  0.34350832    -0.78900
C423        C  0.11399362  0.83794010  0.09523303     0.81100
N424        N  0.15881295  0.86483170  0.10270303    -0.77200
C425        C  0.18459565  0.84757944  0.10751264     0.83600
N426        N  0.16523165  0.80348812  0.10547409    -0.77100
C427        C  0.12069925  0.77648163  0.09844610     0.83700
N428        N  0.09516703  0.79388201  0.09356675    -0.78900
O429        O  0.08498069  0.48620244  0.45269589    -0.79200
O430        O  0.44036725  0.51963294  0.39386991    -0.79300
O431        O  0.05867507  0.58254991  0.39694288    -0.79300
O432        O  0.44752455  0.95840442  0.49625464    -0.79200
O433        O  0.00570501  0.55715111  0.34632042    -0.79300
O434        O  0.01912612  0.98712915  0.49401567    -0.79300
O435        O  0.47673215  0.52993776  0.45425697    -0.79200
O436        O  0.09205368  0.54816550  0.44551680    -0.79300
C437        C  0.10939410  0.52757307  0.45726670     1.10400
C438        C  0.45398395  0.53862123  0.42993163     1.10300
C439        C  0.03780822  0.58938957  0.36940815     1.10500
C440        C  0.48630412  0.97744804  0.01451605     1.10300
O441        O  0.51083881  0.90913246  0.46706394    -0.79200
O442        O  0.48763119  0.47027205  0.31734738    -0.79300
O443        O  0.08305917  0.98728147  0.37590618    -0.79300
O444        O  0.40657045  0.94648295  0.42203325    -0.79200
O445        O  0.41632804  0.93172596  0.36116271    -0.79300
O446        O  0.02265753  0.92676237  0.38854095    -0.79300
O447        O  0.45151415  0.90539762  0.43819545    -0.79200
O448        O  0.05462607  0.52912340  0.32695429    -0.79300
Co449      Co  0.01852911  0.95632082  0.43805056     1.51500
Co450      Co  0.46466944  0.49342780  0.35702394     1.51700
Co451      Co  0.06899957  0.53476212  0.38779547     1.51600
Co452      Co  0.46893058  0.97106718  0.44567629     1.51500
O453        O  0.50690254  0.99261560  0.40081131    -1.41200
C454        C  0.46962057  0.88633080  0.45540048     1.10400
C455        C  0.52207203  0.99834917  0.30333262     1.10500
C456        C  0.05889583  0.94529094  0.37322145     1.10400
C457        C  0.39019080  0.92656191  0.38697885     1.10400
O458        O  0.07862749  0.52699155  0.19084900    -0.79200
O459        O  0.43072861  0.54514131  0.14602040    -0.79300
O460        O  0.05232060  0.58136548  0.14694301    -0.79300
O461        O  0.51242156  0.02784580  0.24542093    -0.79200
O462        O  0.99715388  0.56550430  0.10069775    -0.79300
O463        O  0.01436939  0.96902317  0.23579708    -0.79300
O464        O  0.47006622  0.56336608  0.20598816    -0.79200
O465        O  0.09972481  0.54330439  0.13027995    -0.79300
C466        C  0.10974869  0.54553642  0.16781856     1.10400
C467        C  0.44767001  0.56994258  0.17941674     1.10300
C468        C  0.03394214  0.59350915  0.12159279     1.10500
C469        C  0.51941918  0.00011301  0.25964648     1.10300
O470        O  0.45527628  0.91915869  0.16589361    -0.79200
O471        O  0.45922398  0.47130376  0.07715897    -0.79300
O472        O  0.02958334  0.96011521  0.11904894    -0.79300
O473        O  0.39218721  0.97778118  0.18477055    -0.79200
O474        O  0.39610811  0.95234111  0.12486641    -0.79300
O475        O  0.04013363  0.93804049  0.17650961    -0.79300
O476        O  0.43338331  0.93922009  0.21898681    -0.79200
O477        O  0.02855824  0.52071433  0.07688220    -0.79300
Co478      Co  0.01412430  0.97229805  0.17607417     1.51500
Co479      Co  0.44750790  0.50750241  0.11432412     1.51700
Co480      Co  0.03987762  0.52170173  0.13693783     1.51600
Co481      Co  0.45473270  0.00294587  0.21144217     1.51500
O482        O  0.48336608  0.00324787  0.16068054    -1.41200
C483        C  0.43106503  0.90931018  0.19415635     1.10400
C484        C  0.49233168  0.99011723  0.05802224     1.10500
C485        C  0.03862243  0.93540968  0.13852112     1.10400
C486        C  0.37346638  0.95237447  0.15204120     1.10400
C487        C  0.05823956  0.69888100  0.08049270     0.24500
C488        C  0.10005642  0.72927517  0.10156235    -0.23600
C489        C  0.12080108  0.71452419  0.12791285     0.19400
C490        C  0.09937836  0.67052268  0.13435238     0.24400
C491        C  0.05679514  0.64010174  0.11428174    -0.23600
C492        C  0.03687194  0.65466973  0.08657252     0.19300
F493        F  0.99663532  0.62637785  0.06530340    -0.13500
F494        F  0.03808237  0.71188457  0.05373755    -0.15900
F495        F  0.12053298  0.65806886  0.16060073    -0.15900
F496        F  0.16119980  0.74290377  0.14891808    -0.13500
C497        C  0.29785808  0.93999059  0.15607791     0.24500
C498        C  0.32487451  0.92491323  0.14330273    -0.23600
C499        C  0.30554363  0.88524128  0.11790423     0.19400
C500        C  0.26019130  0.86093860  0.10561827     0.24400
C501        C  0.23298423  0.87576165  0.11828150    -0.23600
C502        C  0.25220985  0.91568905  0.14346635     0.19300
F503        F  0.22683386  0.93078200  0.15654345    -0.13500
F504        F  0.31580560  0.97896089  0.17946067    -0.15900
F505        F  0.24300021  0.82312207  0.08057142    -0.15900
F506        F  0.33066718  0.86990621  0.10471767    -0.13500
C507        C  0.03067348  0.86276970  0.12905808     0.24500
C508        C  0.04782779  0.90490825  0.11725011    -0.23600
C509        C  0.08000682  0.92041431  0.09038890     0.19400
C510        C  0.09958694  0.89671304  0.08033248     0.24400
C511        C  0.08606201  0.85678272  0.09607323    -0.23600
C512        C  0.04927663  0.83844718  0.11807132     0.19300
F513        F  0.03424795  0.79914475  0.13252580    -0.13500
F514        F  0.99784510  0.84645310  0.15336650    -0.15900
F515        F  0.13352434  0.91396584  0.05731549    -0.15900
F516        F  0.09568177  0.96045854  0.07735703    -0.13500
C517        C  0.07381333  0.69154861  0.31609223     0.24500
C518        C  0.10244121  0.72461282  0.34727181    -0.23600
C519        C  0.10555526  0.71335121  0.38626153     0.19400
C520        C  0.08185007  0.66956836  0.39388553     0.24400
C521        C  0.05508019  0.63575362  0.36233788    -0.23600
C522        C  0.05048237  0.64729405  0.32347044     0.19300
F523        F  0.02562204  0.61577303  0.29217077    -0.13500
F524        F  0.06999723  0.70192185  0.27822250    -0.15900
F525        F  0.08601606  0.66025161  0.43217466    -0.15900
F526        F  0.13203751  0.74498785  0.41707598    -0.13500
C527        C  0.27368249  0.84838841  0.33198225     0.24500
C528        C  0.24829192  0.85919937  0.35482689    -0.23600
C529        C  0.26962935  0.89150288  0.38811896     0.19400
C530        C  0.31528829  0.91229848  0.39884808     0.24400
C531        C  0.34120221  0.90200247  0.37597262    -0.23600
C532        C  0.31986359  0.87007248  0.34207316     0.19300
F533        F  0.34352881  0.85958799  0.31889014    -0.13500
F534        F  0.25389866  0.81759783  0.29934074    -0.15900
F535        F  0.33417013  0.94345691  0.43127860    -0.15900
F536        F  0.24597421  0.90231557  0.41102931    -0.13500
C537        C  0.11966950  0.93725599  0.34760881     0.24500
C538        C  0.07580445  0.91779495  0.35710823    -0.23600
C539        C  0.05005738  0.87166839  0.35587589     0.19400
C540        C  0.06846148  0.84617493  0.34828139     0.24400
C541        C  0.11329435  0.86590549  0.34155233    -0.23600
C542        C  0.13810322  0.91171056  0.33989950     0.19300
F543        F  0.18084388  0.93235782  0.33193601    -0.13500
F544        F  0.14576033  0.98140658  0.34757140    -0.15900
F545        F  0.04248386  0.80221033  0.34959200    -0.15900
F546        F  0.00727867  0.85091011  0.36380324    -0.13500
C547        C  0.42943963  0.61195121  0.22862884     0.24500
C548        C  0.43634121  0.60343989  0.18891146    -0.23600
C549        C  0.42636747  0.62266541  0.15765166     0.19400
C550        C  0.40741578  0.64759980  0.16554813     0.24400
C551        C  0.39785995  0.65336840  0.20466358    -0.23600
C552        C  0.40990109  0.63634847  0.23627145     0.19300
F553        F  0.40038683  0.64128787  0.27416398    -0.13500
F554        F  0.43792204  0.59352370  0.25951792    -0.15900
F555        F  0.39555068  0.66352996  0.13450544    -0.15900
F556        F  0.43314841  0.61572550  0.11913192    -0.13500
C557        C  0.38782730  0.80596794  0.24511383     0.24500
C558        C  0.37197694  0.77439828  0.21135037    -0.23600
C559        C  0.37108053  0.78666512  0.17246489     0.19400
C560        C  0.38767029  0.83047627  0.16708537     0.24400
C561        C  0.40497303  0.86269628  0.20065287    -0.23600
C562        C  0.40413509  0.85000723  0.23984285     0.19300
F563        F  0.42217669  0.88052292  0.27273436    -0.13500
F564        F  0.38904009  0.79439418  0.28292321    -0.15900
F565        F  0.38852045  0.84170818  0.12890479    -0.15900
F566        F  0.35545510  0.75627028  0.13957576    -0.13500
C567        C  0.21911767  0.63210290  0.22636842     0.24500
C568        C  0.24848362  0.62413159  0.20697179    -0.23600
C569        C  0.23124889  0.58781023  0.17741945     0.19400
C570        C  0.18577161  0.56141668  0.16596340     0.24400
C571        C  0.15661178  0.57018086  0.18433007    -0.23600
C572        C  0.17329026  0.60485167  0.21543523     0.19300
F573        F  0.14550371  0.61394043  0.23334375    -0.13500
F574        F  0.23484504  0.66678224  0.25516561    -0.15900
F575        F  0.17016289  0.52779756  0.13602749    -0.15900
F576        F  0.25850505  0.57957311  0.15745401    -0.13500
C577        C  0.41505739  0.61742407  0.42481753     0.24500
C578        C  0.39411879  0.61146241  0.45998950    -0.23600
C579        C  0.39682404  0.58462762  0.98759493     0.19400
C580        C  0.41963825  0.56345337  0.47954994     0.24400
C581        C  0.43888940  0.56794483  0.44334309    -0.23600
C582        C  0.43678063  0.59551213  0.41635313     0.19300
F583        F  0.45451837  0.60006108  0.38095387    -0.13500
F584        F  0.41244499  0.64273519  0.39750838    -0.15900
F585        F  0.42028798  0.53620447  0.00576572    -0.15900
F586        F  0.37721518  0.57892704  0.02201604    -0.13500
C587        C  0.39683385  0.81306279  0.44825969     0.24500
C588        C  0.44309326  0.83835236  0.45980731    -0.23600
C589        C  0.46368748  0.81724335  0.47606608     0.19400
C590        C  0.43910296  0.77228139  0.47988413     0.24400
C591        C  0.39300731  0.74679964  0.46772081    -0.23600
C592        C  0.37213050  0.76793881  0.45231432     0.19300
F593        F  0.32798461  0.74475590  0.43981321    -0.13500
F594        F  0.37524107  0.83176583  0.43267687    -0.15900
F595        F  0.46077892  0.75381410  0.49589795    -0.15900
F596        F  0.50793161  0.83988907  0.48818646    -0.13500
C597        C  0.18227448  0.53140850  0.46145105     0.24500
C598        C  0.15836573  0.55173917  0.46868060    -0.23600
C599        C  0.18235044  0.59736861  0.48064418     0.19400
C600        C  0.22874697  0.62237250  0.48307919     0.24400
C601        C  0.25276094  0.60254272  0.47364323    -0.23600
C602        C  0.22871536  0.55636578  0.46374107     0.19300
F603        F  0.24967866  0.53516342  0.45411750    -0.13500
F604        F  0.16066122  0.48765595  0.44944767    -0.15900
F605        F  0.24991126  0.66628141  0.49399639    -0.15900
F606        F  0.16073769  0.61825580  0.48894165    -0.13500
C607        C  0.36961327  0.63335146  0.46706644     0.81100
N608        N  0.32554465  0.60968958  0.47029942    -0.77200
C609        C  0.30204951  0.62967765  0.47267069     0.83600
N610        N  0.32375742  0.67421752  0.47194178    -0.77100
C611        C  0.36820600  0.69826383  0.46909661     0.83700
N612        N  0.39040809  0.67723903  0.46612863    -0.78900
C613        C  0.36896794  0.67039223  0.71104724     0.80900
N614        N  0.38469427  0.71397438  0.71239674    -0.77200
C615        C  0.35657143  0.72853747  0.71572488     0.83600
N616        N  0.31263666  0.69940602  0.71583089    -0.77100
C617        C  0.29667228  0.65577644  0.71381451     0.83700
N618        N  0.32502263  0.64149756  0.71133383    -0.78900
C619        C  0.13462939  0.83940123  0.83938667     0.81100
N620        N  0.10975576  0.79490948  0.83811530    -0.77200
C621        C  0.12915318  0.77102271  0.84036345     0.83600
N622        N  0.17408240  0.79183708  0.84448715    -0.77100
C623        C  0.19948796  0.83619031  0.84546325     0.83700
N624        N  0.17958102  0.85973284  0.84355007    -0.78900
C625        C  0.11397253  0.83796694  0.59515059     0.81100
N626        N  0.15879361  0.86484997  0.60262161    -0.77200
C627        C  0.18456623  0.84758945  0.60746253     0.83600
N628        N  0.16519062  0.80349963  0.60545701    -0.77100
C629        C  0.12065865  0.77650126  0.59842887     0.83700
N630        N  0.09513635  0.79390872  0.59351421    -0.78900
O631        O  0.08493299  0.48609418  0.95267678    -0.79200
O632        O  0.44033280  0.51955534  0.89387880    -0.79300
O633        O  0.05863546  0.58244735  0.89693921    -0.79300
O634        O  0.44750303  0.95830907  0.99627506    -0.79200
O635        O  0.00566169  0.55706850  0.84632386    -0.79300
O636        O  0.01910267  0.98703698  0.99401370    -0.79300
O637        O  0.47670542  0.52985564  0.95426034    -0.79200
O638        O  0.09201430  0.54806099  0.94550158    -0.79300
C639        C  0.10934933  0.52746405  0.95725226     1.10400
C640        C  0.45395318  0.53854035  0.92994151     1.10300
C641        C  0.03777113  0.58929929  0.86941313     1.10500
C642        C  0.48631961  0.97753081  0.51450705     1.10300
O643        O  0.51078775  0.90902910  0.96706072    -0.79200
O644        O  0.48757752  0.47019575  0.81732892    -0.79300
O645        O  0.08298997  0.98716857  0.87588537    -0.79300
O646        O  0.40653218  0.94640251  0.92206405    -0.79200
O647        O  0.41627217  0.93165516  0.86118281    -0.79300
O648        O  0.02258944  0.92665446  0.88852978    -0.79300
O649        O  0.45146407  0.90529761  0.93819783    -0.79200
O650        O  0.05457476  0.52902980  0.82694181    -0.79300
Co651      Co  0.01848257  0.95621999  0.93804550     1.51500
Co652      Co  0.46462712  0.49334946  0.85702305     1.51700
Co653      Co  0.06895123  0.53465791  0.88778193     1.51600
Co654      Co  0.46889392  0.97097132  0.94569011     1.51500
O655        O  0.50685201  0.99251852  0.90081331    -1.41200
C656        C  0.46956848  0.88622821  0.95540098     1.10400
C657        C  0.52199585  0.99826610  0.80332403     1.10500
C658        C  0.05882354  0.94517890  0.87320378     1.10400
C659        C  0.39014400  0.92648799  0.88700884     1.10400
O660        O  0.07859791  0.52697436  0.69084355    -0.79200
O661        O  0.43071743  0.54515663  0.64603334    -0.79300
O662        O  0.05229606  0.58139067  0.64696193    -0.79300
O663        O  0.51235595  0.02778900  0.74542387    -0.79200
O664        O  0.99713648  0.56552918  0.60070866    -0.79300
O665        O  0.01430198  0.96896882  0.73577420    -0.79300
O666        O  0.47004640  0.56335079  0.70600520    -0.79200
O667        O  0.09971993  0.54335213  0.63028943    -0.79300
C668        C  0.10972762  0.54554500  0.66782530     1.10400
C669        C  0.44765360  0.56993934  0.67944059     1.10300
C670        C  0.03391744  0.59353505  0.62161216     1.10500
C671        C  0.51934460  0.00004479  0.75963740     1.10300
O672        O  0.45522737  0.91914070  0.66584273    -0.79200
O673        O  0.45922452  0.47134423  0.57714784    -0.79300
O674        O  0.02958422  0.96016385  0.61902534    -0.79300
O675        O  0.39214257  0.97775916  0.68474997    -0.79200
O676        O  0.39607353  0.95233851  0.62483966    -0.79300
O677        O  0.04008773  0.93802328  0.67646284    -0.79300
O678        O  0.43332218  0.93917715  0.71894215    -0.79200
O679        O  0.02855857  0.52076434  0.57688690    -0.79300
Co680      Co  0.01407700  0.97228180  0.67605314     1.51500
Co681      Co  0.44749697  0.50752460  0.61432225     1.51700
Co682      Co  0.03987018  0.52173237  0.63693806     1.51600
Co683      Co  0.45467844  0.00290932  0.71143101     1.51500
O684        O  0.48332633  0.00323896  0.66067321    -1.41200
C685        C  0.43100785  0.90927793  0.69409975     1.10400
C686        C  0.49233086  0.99017417  0.55801745     1.10500
C687        C  0.03860913  0.93543706  0.63847677     1.10400
C688        C  0.37342824  0.95236248  0.65201518     1.10400
C689        C  0.05819233  0.69889810  0.58050748     0.24500
C690        C  0.10000776  0.72929891  0.60157538    -0.23600
C691        C  0.12075286  0.71455758  0.62793803     0.19400
C692        C  0.09933636  0.67055791  0.63438376     0.24400
C693        C  0.05676015  0.64012904  0.61430687    -0.23600
C694        C  0.03683400  0.65468858  0.58659032     0.19300
F695        F  0.99660682  0.62638829  0.56530983    -0.13500
F696        F  0.03803105  0.71189160  0.55374576    -0.15900
F697        F  0.12049342  0.65811189  0.66063853    -0.15900
F698        F  0.16114949  0.74294416  0.64894379    -0.13500
C699        C  0.29783414  0.94002263  0.65598958     0.24500
C700        C  0.32483975  0.92490744  0.64327365    -0.23600
C701        C  0.30550395  0.88520225  0.61792906     0.19400
C702        C  0.26015290  0.86090108  0.60563613     0.24400
C703        C  0.23295495  0.87576314  0.61823676    -0.23600
C704        C  0.25218858  0.91572489  0.64336976     0.19300
F705        F  0.22682337  0.93085645  0.65638850    -0.13500
F706        F  0.31579226  0.97902585  0.67931920    -0.15900
F707        F  0.24295517  0.82304632  0.58064471    -0.15900
F708        F  0.33062253  0.86983373  0.60480474    -0.13500
C709        C  0.03061876  0.86278261  0.62891226     0.24500
C710        C  0.04783075  0.90495876  0.61718242    -0.23600
C711        C  0.08006219  0.92050646  0.59037260     0.19400
C712        C  0.09963344  0.89679999  0.58030020     0.24400
C713        C  0.08604978  0.85682425  0.59597429    -0.23600
C714        C  0.04921133  0.83845493  0.61790671     0.19300
F715        F  0.03411229  0.79910513  0.63228351    -0.13500
F716        F  0.99773709  0.84642650  0.65316294    -0.15900
F717        F  0.13361694  0.91408854  0.55733691    -0.15900
F718        F  0.09578945  0.96058775  0.57740789    -0.13500
C719        C  0.07370046  0.69147549  0.81613965     0.24500
C720        C  0.10241190  0.72452821  0.84729535    -0.23600
C721        C  0.10561133  0.71325747  0.88626382     0.19400
C722        C  0.08190393  0.66947671  0.89388867     0.24400
C723        C  0.05505230  0.63566919  0.86235823    -0.23600
C724        C  0.05037110  0.64722015  0.82351480     0.19300
F725        F  0.02542039  0.61570814  0.79223189    -0.13500
F726        F  0.06980123  0.70185981  0.77829169    -0.15900
F727        F  0.08614764  0.66015670  0.93216145    -0.15900
F728        F  0.13217291  0.74488354  0.91705916    -0.13500
C729        C  0.27363508  0.84831929  0.83202422     0.24500
C730        C  0.24824691  0.85912595  0.85487552    -0.23600
C731        C  0.26958441  0.89142242  0.88817304     0.19400
C732        C  0.31524340  0.91221708  0.89889920     0.24400
C733        C  0.34115550  0.90192748  0.87601333    -0.23600
C734        C  0.31981560  0.87000237  0.84211139     0.19300
F735        F  0.34347824  0.85952082  0.81892229    -0.13500
F736        F  0.25384990  0.81753285  0.79937976    -0.15900
F737        F  0.33412817  0.94336748  0.93133599    -0.15900
F738        F  0.24592864  0.90222768  0.91109077    -0.13500
C739        C  0.11959437  0.93714534  0.84759164     0.24500
C740        C  0.07573076  0.91768220  0.85709348    -0.23600
C741        C  0.04998948  0.87155650  0.85587507     0.19400
C742        C  0.06840074  0.84606793  0.84829386     0.24400
C743        C  0.11323446  0.86580326  0.84156449    -0.23600
C744        C  0.13803582  0.91160510  0.83989768     0.19300
F745        F  0.18077753  0.93225579  0.83193668    -0.13500
F746        F  0.14567839  0.98129431  0.84753903    -0.15900
F747        F  0.04243223  0.80210507  0.84962032    -0.15900
F748        F  0.00721170  0.85079709  0.86380564    -0.13500
C749        C  0.42923207  0.61176688  0.72865111     0.24500
C750        C  0.43631534  0.60342151  0.68896134    -0.23600
C751        C  0.42650928  0.62279423  0.65773545     0.19400
C752        C  0.40756280  0.64773503  0.66563183     0.24400
C753        C  0.39782445  0.65334024  0.70470863    -0.23600
C754        C  0.40968215  0.63615295  0.73628862     0.19300
F755        F  0.39998496  0.64092794  0.77413984    -0.13500
F756        F  0.43754396  0.59318386  0.75949951    -0.15900
F757        F  0.39587044  0.66382128  0.63461294    -0.15900
F758        F  0.43345106  0.61599498  0.61924357    -0.13500
C759        C  0.38771518  0.80592720  0.74504721     0.24500
C760        C  0.37192832  0.77436721  0.71128340    -0.23600
C761        C  0.37108316  0.78663821  0.67239316     0.19400
C762        C  0.38766751  0.83044792  0.66701173     0.24400
C763        C  0.40491564  0.86266058  0.70058184    -0.23600
C764        C  0.40402095  0.84996435  0.73977397     0.19300
F765        F  0.42200608  0.88047216  0.77267107    -0.13500
F766        F  0.38887082  0.79434656  0.78286174    -0.15900
F767        F  0.38856486  0.84168493  0.62882933    -0.15900
F768        F  0.35550758  0.75624943  0.63950436    -0.13500
C769        C  0.21908879  0.63209706  0.72638253     0.24500
C770        C  0.24845130  0.62411202  0.70699721    -0.23600
C771        C  0.23121556  0.58778217  0.67745477     0.19400
C772        C  0.18573947  0.56139418  0.66599519     0.24400
C773        C  0.15658358  0.57017334  0.68434921    -0.23600
C774        C  0.17326196  0.60485071  0.71544632     0.19300
F775        F  0.14547725  0.61395260  0.73334062    -0.13500
F776        F  0.23481872  0.66678832  0.75516644    -0.15900
F777        F  0.17012882  0.52777020  0.63606444    -0.15900
F778        F  0.25847053  0.57953605  0.65749746    -0.13500
C779        C  0.41503767  0.61735469  0.92485622     0.24500
C780        C  0.39407993  0.61137047  0.96001905    -0.23600
C781        C  0.39688168  0.58474200  0.48758075     0.19400
C782        C  0.41958424  0.56334326  0.97955976     0.24400
C783        C  0.43885647  0.56785965  0.94336274    -0.23600
C784        C  0.43676333  0.59544590  0.91638665     0.19300
F785        F  0.45451833  0.60001631  0.88099532    -0.13500
F786        F  0.41244017  0.64268349  0.89755893    -0.15900
F787        F  0.42035950  0.53633529  0.50577109    -0.15900
F788        F  0.37729523  0.57906834  0.52201305    -0.13500
C789        C  0.39678543  0.81294946  0.94822769     0.24500
C790        C  0.44303862  0.83824930  0.95981228    -0.23600
C791        C  0.46362467  0.81715042  0.97611409     0.19400
C792        C  0.43903868  0.77218937  0.97993921     0.24400
C793        C  0.39295059  0.74669898  0.96774168    -0.23600
C794        C  0.37208139  0.76782718  0.95229069     0.19300
F795        F  0.32794307  0.74463267  0.93975152    -0.13500
F796        F  0.37520145  0.83164066  0.93259692    -0.15900
F797        F  0.46070534  0.75373097  0.99599411    -0.15900
F798        F  0.50786087  0.83980514  0.98827257    -0.13500
C799        C  0.18222965  0.53130105  0.96144180     0.24500
C800        C  0.15831784  0.55162642  0.96868085    -0.23600
C801        C  0.18229880  0.59725036  0.98067105     0.19400
C802        C  0.22869690  0.62225701  0.98312001     0.24400
C803        C  0.25271405  0.60243484  0.97367024    -0.23600
C804        C  0.22867117  0.55626088  0.96374567     0.19300
F805        F  0.24963870  0.53506575  0.95411190    -0.13500
F806        F  0.16061894  0.48755361  0.94941360    -0.15900
F807        F  0.24985898  0.66616080  0.99406539    -0.15900
F808        F  0.16068185  0.61813002  0.98898102    -0.13500
C809        C  0.86961879  0.13326724  0.96718034     0.81100
N810        N  0.82554339  0.10958817  0.97038263    -0.77200
C811        C  0.80203181  0.12956037  0.97273950     0.83600
N812        N  0.82372738  0.17410145  0.97202320    -0.77100
C813        C  0.86818169  0.19816626  0.96920732     0.83700
N814        N  0.89040271  0.17715765  0.96625540    -0.78900
C815        C  0.86905183  0.17042159  0.21099562     0.80900
N816        N  0.88477677  0.21401172  0.21248312    -0.77200
C817        C  0.85663872  0.22855187  0.21584287     0.83600
N818        N  0.81269518  0.19939407  0.21586005    -0.77100
C819        C  0.79673549  0.15575945  0.21372032     0.83700
N820        N  0.82509588  0.14149911  0.21118266    -0.78900
C821        C  0.63466148  0.33949934  0.33943669     0.81100
N822        N  0.60977738  0.29500666  0.33814281    -0.77200
C823        C  0.62916164  0.27110761  0.34037004     0.83600
N824        N  0.67408982  0.29190925  0.34449849    -0.77100
C825        C  0.69950716  0.33626445  0.34549796     0.83700
N826        N  0.67961270  0.35982048  0.34360523    -0.78900
C827        C  0.61398303  0.33798625  0.09520947     0.81100
N828        N  0.65880220  0.36487268  0.10269803    -0.77200
C829        C  0.68457744  0.34761393  0.10751593     0.83600
N830        N  0.66520779  0.30352254  0.10546558    -0.77100
C831        C  0.62067657  0.27651724  0.09842590     0.83700
N832        N  0.59515076  0.29392542  0.09353781    -0.78900
O833        O  0.58499221  0.98617797  0.45259873    -0.79200
O834        O  0.94037711  0.01962081  0.39381093    -0.79300
O835        O  0.55869773  0.08254182  0.39686717    -0.79300
O836        O  0.94750804  0.45841434  0.49634187    -0.79200
O837        O  0.50571673  0.05714417  0.34625100    -0.79300
O838        O  0.51910671  0.48715229  0.49408146    -0.79300
O839        O  0.97674638  0.02993711  0.45419777    -0.79200
O840        O  0.59208729  0.04815347  0.44542945    -0.79300
C841        C  0.60941212  0.02754716  0.45718112     1.10400
C842        C  0.95399196  0.03861367  0.42987214     1.10300
C843        C  0.53781298  0.08937857  0.36934651     1.10500
C844        C  0.98628514  0.47747200  0.01459699     1.10300
O845        O  0.01082033  0.40914422  0.46716168    -0.79200
O846        O  0.98767032  0.97028295  0.31729369    -0.79300
O847        O  0.58302564  0.48726716  0.37597909    -0.79300
O848        O  0.90655218  0.44649237  0.42212272    -0.79200
O849        O  0.91630240  0.43173513  0.36124953    -0.79300
O850        O  0.52263194  0.42674935  0.38862999    -0.79300
O851        O  0.95149565  0.40540238  0.43828538    -0.79200
O852        O  0.55464412  0.02912723  0.32687053    -0.79300
Co853      Co  0.51850603  0.45632457  0.43812825     1.51500
Co854      Co  0.96469278  0.99342318  0.35696743     1.51700
Co855      Co  0.56902059  0.03475355  0.38770908     1.51600
Co856      Co  0.96891160  0.47107395  0.44576209     1.51500
O857        O  0.00688271  0.49262132  0.40089606    -1.41200
C858        C  0.96960240  0.38633789  0.45549577     1.10400
C859        C  0.02205266  0.49834386  0.30341809     1.10500
C860        C  0.55886601  0.44527794  0.37330332     1.10400
C861        C  0.89016761  0.42656829  0.38707015     1.10400
O862        O  0.57866146  0.02698742  0.19075219    -0.79200
O863        O  0.93078161  0.04515347  0.14593339    -0.79300
O864        O  0.55236429  0.08137156  0.14683503    -0.79300
O865        O  0.01238845  0.52783180  0.24550649    -0.79200
O866        O  0.49718937  0.06550865  0.10059771    -0.79300
O867        O  0.51434694  0.46900702  0.23584531    -0.79300
O868        O  0.97011976  0.06339696  0.20590120    -0.79200
O869        O  0.59974169  0.04327846  0.13017459    -0.79300
C870        C  0.60977676  0.04551383  0.16771102     1.10400
C871        C  0.94772734  0.06997060  0.17932220     1.10300
C872        C  0.53398031  0.09351410  0.12148804     1.10500
C873        C  0.01939686  0.50010519  0.25973192     1.10300
O874        O  0.95525970  0.41914241  0.16598271    -0.79200
O875        O  0.95925601  0.97127395  0.07710416    -0.79300
O876        O  0.52956485  0.46015375  0.11908044    -0.79300
O877        O  0.89215007  0.47774371  0.18485417    -0.79200
O878        O  0.89608323  0.45231878  0.12494700    -0.79300
O879        O  0.54011652  0.43804536  0.17652056    -0.79300
O880        O  0.93336564  0.43920251  0.21907758    -0.79200
O881        O  0.52858036  0.02069995  0.07679226    -0.79300
Co882      Co  0.51409509  0.47229563  0.17611987     1.51500
Co883      Co  0.94754883  0.00749339  0.11425211     1.51700
Co884      Co  0.53990449  0.02169707  0.13684556     1.51600
Co885      Co  0.95469662  0.50292195  0.21152933     1.51500
O886        O  0.98333244  0.50323145  0.16076797    -1.41200
C887        C  0.93105281  0.40929422  0.19424981     1.10400
C888        C  0.99231207  0.49013073  0.05810666     1.10500
C889        C  0.53861110  0.43544200  0.13853192     1.10400
C890        C  0.87343525  0.45234658  0.15211804     1.10400
C891        C  0.55814674  0.19892269  0.08055331     0.24500
C892        C  0.60003329  0.22929952  0.10151556    -0.23600
C893        C  0.62086899  0.21451311  0.12771963     0.19400
C894        C  0.59947097  0.17050393  0.13413081     0.24400
C895        C  0.55682010  0.14010841  0.11418211    -0.23600
C896        C  0.53680583  0.15470444  0.08660509     0.19300
F897        F  0.49650223  0.12643327  0.06543972    -0.13500
F898        F  0.53789110  0.21194574  0.05392982    -0.15900
F899        F  0.62072511  0.15801449  0.16022318    -0.15900
F900        F  0.66134456  0.24285992  0.14860693    -0.13500
C901        C  0.79783185  0.43997969  0.15614203     0.24500
C902        C  0.82484436  0.42489811  0.14336327    -0.23600
C903        C  0.80551387  0.38524215  0.11794088     0.19400
C904        C  0.76016605  0.36095852  0.10563525     0.24400
C905        C  0.73296309  0.37578479  0.11830130    -0.23600
C906        C  0.75218779  0.41569693  0.14350986     0.19300
F907        F  0.72681402  0.43079139  0.15659027    -0.13500
F908        F  0.81578039  0.47893632  0.17954711    -0.15900
F909        F  0.74297499  0.32315580  0.08056695    -0.15900
F910        F  0.83063306  0.36990527  0.10474718    -0.13500
C911        C  0.53060924  0.36278361  0.12894894     0.24500
C912        C  0.54783096  0.40496607  0.11723311    -0.23600
C913        C  0.58007371  0.42052410  0.09043489     0.19400
C914        C  0.59964882  0.39682168  0.08036501     0.24400
C915        C  0.58605683  0.35683910  0.09602882    -0.23600
C916        C  0.54920602  0.33845888  0.11794464     0.19300
F917        F  0.53409881  0.29910134  0.13230739    -0.13500
F918        F  0.49771316  0.34641791  0.15318404    -0.15900
F919        F  0.63364515  0.41412115  0.05741642    -0.15900
F920        F  0.59580738  0.46061111  0.07748121    -0.13500
C921        C  0.57382074  0.19155670  0.31607557     0.24500
C922        C  0.60240400  0.22460886  0.34728004    -0.23600
C923        C  0.60547065  0.21333067  0.38627123     0.19400
C924        C  0.58177037  0.16954070  0.39387175     0.24400
C925        C  0.55505612  0.13573997  0.36229899    -0.23600
C926        C  0.55049724  0.14729654  0.32343071     0.19300
F927        F  0.52569166  0.11578576  0.29210953    -0.13500
F928        F  0.57004503  0.20194866  0.27820544    -0.15900
F929        F  0.58589016  0.16020178  0.43216064    -0.15900
F930        F  0.63190726  0.24495711  0.41710783    -0.13500
C931        C  0.77367223  0.34847010  0.33201062     0.24500
C932        C  0.74826287  0.35918618  0.35492686    -0.23600
C933        C  0.76957586  0.39138394  0.38829999     0.19400
C934        C  0.81523481  0.41217808  0.39903058     0.24400
C935        C  0.84117368  0.40198939  0.37607486    -0.23600
C936        C  0.81985305  0.37015477  0.34210393     0.19300
F937        F  0.84353554  0.35976945  0.31884457    -0.13500
F938        F  0.75390730  0.31777560  0.29929691    -0.15900
F939        F  0.83408954  0.44323015  0.43154411    -0.15900
F940        F  0.74589558  0.40209442  0.41128088    -0.13500
C941        C  0.61964739  0.43725473  0.34770338     0.24500
C942        C  0.57577821  0.41778739  0.35719101    -0.23600
C943        C  0.55003003  0.37166015  0.35594781     0.19400
C944        C  0.56843775  0.34617101  0.34835167     0.24400
C945        C  0.61327510  0.36590818  0.34163350    -0.23600
C946        C  0.63808485  0.41171406  0.33999390     0.19300
F947        F  0.68083023  0.43236673  0.33204315    -0.13500
F948        F  0.64573961  0.48140711  0.34767907    -0.15900
F949        F  0.54245966  0.30220440  0.34965061    -0.15900
F950        F  0.50724804  0.35089830  0.36386470    -0.13500
C951        C  0.92973573  0.11219602  0.22854892     0.24500
C952        C  0.93641155  0.10348731  0.18879562    -0.23600
C953        C  0.92622519  0.12253578  0.15750303     0.19400
C954        C  0.90726588  0.14745927  0.16540944     0.24400
C955        C  0.89792523  0.15340900  0.20457109    -0.23600
C956        C  0.91019881  0.13659352  0.23620562     0.19300
F957        F  0.90090082  0.14171839  0.27414830    -0.13500
F958        F  0.93843772  0.09396100  0.25948214    -0.15900
F959        F  0.89519361  0.16321004  0.13434650    -0.15900
F960        F  0.93279096  0.11542288  0.11894625    -0.13500
C961        C  0.88789570  0.30595894  0.24520339     0.24500
C962        C  0.87198263  0.27438614  0.21143597    -0.23600
C963        C  0.87101800  0.28665049  0.17255835     0.19400
C964        C  0.88761053  0.33046297  0.16718671     0.24400
C965        C  0.90497079  0.36268433  0.20075473    -0.23600
C966        C  0.90419709  0.34999921  0.23994034     0.19300
F967        F  0.92229548  0.38051873  0.27282960    -0.13500
F968        F  0.88917016  0.29438666  0.28300439    -0.15900
F969        F  0.88840959  0.34169454  0.12901024    -0.15900
F970        F  0.85533074  0.25625181  0.13966662    -0.13500
C971        C  0.71914207  0.13198319  0.22633460     0.24500
C972        C  0.74851638  0.12409440  0.20685498    -0.23600
C973        C  0.73129580  0.08786329  0.17720432     0.19400
C974        C  0.68581803  0.06147142  0.16574526     0.24400
C975        C  0.65664618  0.07014942  0.18420534    -0.23600
C976        C  0.67331631  0.10473356  0.21539771     0.19300
F977        F  0.64552164  0.11374556  0.23339285    -0.13500
F978        F  0.73486093  0.16658288  0.25522034    -0.15900
F979        F  0.67022166  0.02793969  0.13572081    -0.15900
F980        F  0.75856500  0.07971892  0.15715531    -0.13500
C981        C  0.91499462  0.11736966  0.42476997     0.24500
C982        C  0.89414577  0.11146773  0.45999121    -0.23600
C983        C  0.89690060  0.08464927  0.98764955     0.19400
C984        C  0.91972526  0.06350101  0.47953703     0.24400
C985        C  0.93888879  0.06793251  0.44328541    -0.23600
C986        C  0.93670369  0.09544882  0.41627639     0.19300
F987        F  0.95435797  0.09994441  0.38083582    -0.13500
F988        F  0.91230889  0.14263239  0.39744749    -0.15900
F989        F  0.92037381  0.03622304  0.00578538    -0.15900
F990        F  0.87732869  0.07896174  0.02209162    -0.13500
C991        C  0.89682779  0.31304629  0.44829593     0.24500
C992        C  0.94307698  0.33835646  0.45990404    -0.23600
C993        C  0.96366298  0.31726367  0.47622155     0.19400
C994        C  0.93908407  0.27229750  0.48002918     0.24400
C995        C  0.89300359  0.24679656  0.46779996    -0.23600
C996        C  0.87213104  0.26791957  0.45234231     0.19300
F997        F  0.82799787  0.24471603  0.43977949    -0.13500
F998        F  0.87524089  0.33173111  0.43265698    -0.15900
F999        F  0.96074858  0.25384340  0.49609872    -0.15900
F1000       F  0.00789290  0.33993001  0.48841257    -0.13500
C1001       C  0.68228902  0.03138143  0.46134548     0.24500
C1002       C  0.65837719  0.05169881  0.46862286    -0.23600
C1003       C  0.68235679  0.09731193  0.48066446     0.19400
C1004       C  0.72875543  0.12231968  0.48312947     0.24400
C1005       C  0.75277408  0.10250862  0.47364270    -0.23600
C1006       C  0.72873153  0.05634222  0.46366354     0.19300
F1007       F  0.74970115  0.03516034  0.45398852    -0.13500
F1008       F  0.66067830  0.98764442  0.44926418    -0.15900
F1009       F  0.74991887  0.16621388  0.49412793    -0.15900
F1010       F  0.66073718  0.11818048  0.48901188    -0.13500
C1011       C  0.86964045  0.13335269  0.46709533     0.81100
N1012       N  0.82556863  0.10967817  0.47031247    -0.77200
C1013       C  0.80206477  0.12965616  0.47269343     0.83600
N1014       N  0.82376527  0.17419808  0.47198737    -0.77100
C1015       C  0.86821623  0.19825788  0.46915733     0.83700
N1016       N  0.89043056  0.17724456  0.46618016    -0.78900
C1017       C  0.86898412  0.17038701  0.71102662     0.80900
N1018       N  0.88470695  0.21397205  0.71243828    -0.77200
C1019       C  0.85657592  0.22852272  0.71578386     0.83600
N1020       N  0.81263790  0.19937743  0.71585240    -0.77100
C1021       C  0.79667815  0.15574565  0.71378020     0.83700
N1022       N  0.82503512  0.14147790  0.71127098    -0.78900
C1023       C  0.63461525  0.33940600  0.83944347     0.81100
N1024       N  0.60974188  0.29491269  0.83814648    -0.77200
C1025       C  0.62913940  0.27102652  0.84038241     0.83600
N1026       N  0.67406827  0.29184141  0.84451781    -0.77100
C1027       C  0.69947458  0.33619675  0.84551870     0.83700
N1028       N  0.67956783  0.35974066  0.84361982    -0.78900
C1029       C  0.61398144  0.33800357  0.59513120     0.81100
N1030       N  0.65880211  0.36487868  0.60262245    -0.77200
C1031       C  0.68456574  0.34760969  0.60747014     0.83600
N1032       N  0.66518150  0.30351857  0.60544959    -0.77100
C1033       C  0.62064991  0.27652468  0.59840449     0.83700
N1034       N  0.59513620  0.29394206  0.59348319    -0.78900
O1035       O  0.58494819  0.98606726  0.95258130    -0.79200
O1036       O  0.94034904  0.01955717  0.89385785    -0.79300
O1037       O  0.55865705  0.08243759  0.89687848    -0.79300
O1038       O  0.94748545  0.45833844  0.99635289    -0.79200
O1039       O  0.50567101  0.05707081  0.84627445    -0.79300
O1040       O  0.51907963  0.48706864  0.99407622    -0.79300
O1041       O  0.97672666  0.02984583  0.95423341    -0.79200
O1042       O  0.59204899  0.04804565  0.94541830    -0.79300
C1043       C  0.60937194  0.02743637  0.95716545     1.10400
C1044       C  0.95397038  0.03853465  0.92992421     1.10300
C1045       C  0.53778164  0.08929466  0.86936732     1.10500
C1046       C  0.98630366  0.47754337  0.51459319     1.10300
O1047       O  0.01077461  0.40904984  0.96715601    -0.79200
O1048       O  0.98759049  0.97021015  0.81728456    -0.79300
O1049       O  0.58296719  0.48715817  0.87595958    -0.79300
O1050       O  0.90651633  0.44641051  0.92213124    -0.79200
O1051       O  0.91625879  0.43165451  0.86125227    -0.79300
O1052       O  0.52257026  0.42664766  0.88861776    -0.79300
O1053       O  0.95144754  0.40530891  0.93829045    -0.79200
O1054       O  0.55457774  0.02902952  0.82686437    -0.79300
Co1055     Co  0.51845985  0.45622967  0.93811960     1.51500
Co1056     Co  0.96464128  0.99335428  0.85698806     1.51700
Co1057     Co  0.56896618  0.03464675  0.88770174     1.51600
Co1058     Co  0.96887557  0.47098639  0.94576456     1.51500
O1059       O  0.00683613  0.49252587  0.90088815    -1.41200
C1060       C  0.96955564  0.38624326  0.95549624     1.10400
C1061       C  0.02199657  0.49826255  0.80340078     1.10500
C1062       C  0.55880173  0.44516931  0.87328695     1.10400
C1063       C  0.89012913  0.42649015  0.88707764     1.10400
O1064       O  0.57860407  0.02696040  0.69076626    -0.79200
O1065       O  0.93074512  0.04515819  0.64595113    -0.79300
O1066       O  0.55231958  0.08138905  0.64686914    -0.79300
O1067       O  0.01234645  0.52778332  0.74550441    -0.79200
O1068       O  0.49715691  0.06553008  0.60061923    -0.79300
O1069       O  0.51430561  0.46896357  0.73581549    -0.79300
O1070       O  0.97007229  0.06336889  0.70592382    -0.79200
O1071       O  0.59972843  0.04332750  0.63021148    -0.79300
C1072       C  0.60973543  0.04552054  0.66774752     1.10400
C1073       C  0.94767932  0.06995166  0.67935364     1.10300
C1074       C  0.53393751  0.09353513  0.62152337     1.10500
C1075       C  0.01934433  0.50004361  0.75971512     1.10300
O1076       O  0.95523241  0.41913405  0.66592651    -0.79200
O1077       O  0.95924602  0.97132119  0.57708787    -0.79300
O1078       O  0.52958223  0.46019684  0.61905394    -0.79300
O1079       O  0.89212689  0.47773880  0.68483500    -0.79200
O1080       O  0.89606458  0.45232813  0.62492286    -0.79300
O1081       O  0.54009322  0.43803668  0.67647637    -0.79300
O1082       O  0.93332341  0.43916803  0.71902634    -0.79200
O1083       O  0.52857369  0.02075203  0.57680297    -0.79300
Co1084     Co  0.51407099  0.47228709  0.67609286     1.51500
Co1085     Co  0.94752073  0.00751366  0.61425236     1.51700
Co1086     Co  0.53988066  0.02172355  0.63685572     1.51600
Co1087     Co  0.95466526  0.50289702  0.71151524     1.51500
O1088       O  0.98331305  0.50323247  0.66075629    -1.41200
C1089       C  0.93101503  0.40927059  0.69418615     1.10400
C1090       C  0.99231715  0.49018270  0.55810262     1.10500
C1091       C  0.53861803  0.43546899  0.63849048     1.10400
C1092       C  0.87341614  0.45234775  0.65209666     1.10400
C1093       C  0.55815331  0.19892282  0.58050667     0.24500
C1094       C  0.59999452  0.22931569  0.60153577    -0.23600
C1095       C  0.62077484  0.21455663  0.62783806     0.19400
C1096       C  0.59937129  0.17055107  0.63426253     0.24400
C1097       C  0.55677095  0.14013258  0.61422834    -0.23600
C1098       C  0.53680718  0.15470782  0.58657072     0.19300
F1099       F  0.49655275  0.12641715  0.56533096    -0.13500
F1100       F  0.53795363  0.21192753  0.55380006    -0.15900
F1101       F  0.62056830  0.15808827  0.66045161    -0.15900
F1102       F  0.66119802  0.24292780  0.64880429    -0.13500
C1103       C  0.79782343  0.44001910  0.65604532     0.24500
C1104       C  0.82482863  0.42489718  0.64334555    -0.23600
C1105       C  0.80549638  0.38519401  0.61799817     0.19400
C1106       C  0.76014933  0.36090143  0.60568729     0.24400
C1107       C  0.73295181  0.37577248  0.61826903    -0.23600
C1108       C  0.75218180  0.41573093  0.64340617     0.19300
F1109       F  0.72681669  0.43086966  0.65640911    -0.13500
F1110       F  0.81577989  0.47902218  0.67937495    -0.15900
F1111       F  0.74295643  0.32304774  0.58069600    -0.15900
F1112       F  0.83061541  0.36982181  0.60488439    -0.13500
C1113       C  0.53060400  0.36280724  0.62885423     0.24500
C1114       C  0.54785243  0.40500858  0.61717847    -0.23600
C1115       C  0.58012330  0.42058921  0.59040720     0.19400
C1116       C  0.59969258  0.39688253  0.58032543     0.24400
C1117       C  0.58606674  0.35687284  0.59594924    -0.23600
C1118       C  0.54919265  0.33847886  0.61783630     0.19300
F1119       F  0.53405048  0.29909795  0.63216070    -0.13500
F1120       F  0.49768529  0.34642211  0.65306497    -0.15900
F1121       F  0.63371294  0.41420139  0.55740506    -0.15900
F1122       F  0.59588428  0.46069585  0.57748994    -0.13500
C1123       C  0.57369038  0.19148747  0.81613502     0.24500
C1124       C  0.60239792  0.22452964  0.84729891    -0.23600
C1125       C  0.60559672  0.21324581  0.88626206     0.19400
C1126       C  0.58189388  0.16946142  0.89387201     0.24400
C1127       C  0.55505053  0.13566480  0.86233154    -0.23600
C1128       C  0.55036906  0.14722797  0.82349498     0.19300
F1129       F  0.52543205  0.11572454  0.79220230    -0.13500
F1130       F  0.56979012  0.20188577  0.77829358    -0.15900
F1131       F  0.58613657  0.16012614  0.93213889    -0.15900
F1132       F  0.63215552  0.24486311  0.91706441    -0.13500
C1133       C  0.77362664  0.34835499  0.83206296     0.24500
C1134       C  0.74823074  0.35912624  0.85494064    -0.23600
C1135       C  0.76955685  0.39137632  0.88827347     0.19400
C1136       C  0.81521567  0.41216824  0.89900216     0.24400
C1137       C  0.84113860  0.40192247  0.87608440    -0.23600
C1138       C  0.81980657  0.37003646  0.84215309     0.19300
F1139       F  0.84347619  0.35959310  0.81893480    -0.13500
F1140       F  0.75384896  0.31760532  0.79939110    -0.15900
F1141       F  0.83408723  0.44327223  0.93147526    -0.15900
F1142       F  0.74589009  0.40213753  0.91122128    -0.13500
C1143       C  0.61956041  0.43713548  0.84764443     0.24500
C1144       C  0.57570716  0.41767184  0.85717705    -0.23600
C1145       C  0.54997767  0.37154850  0.85598562     0.19400
C1146       C  0.56839225  0.34606443  0.84839866     0.24400
C1147       C  0.61321563  0.36580159  0.84163470    -0.23600
C1148       C  0.63800360  0.41159874  0.83994368     0.19300
F1149       F  0.68073391  0.43224744  0.83194835    -0.13500
F1150       F  0.64563118  0.48128174  0.84756444    -0.15900
F1151       F  0.54243819  0.30210525  0.84975697    -0.15900
F1152       F  0.50721119  0.35078863  0.86394853    -0.13500
C1153       C  0.92946107  0.11195986  0.72858307     0.24500
C1154       C  0.93634233  0.10344273  0.68885867    -0.23600
C1155       C  0.92633988  0.12265510  0.65760503     0.19400
C1156       C  0.90738509  0.14758381  0.66551456     0.24400
C1157       C  0.89784807  0.15335504  0.70463697    -0.23600
C1158       C  0.90991521  0.13634778  0.73623881     0.19300
F1159       F  0.90041776  0.14128934  0.77413807    -0.13500
F1160       F  0.93796884  0.09354492  0.75946874    -0.15900
F1161       F  0.89549764  0.16350471  0.63447871    -0.15900
F1162       F  0.93308933  0.11570438  0.61907727    -0.13500
C1163       C  0.88776555  0.30591804  0.74512702     0.24500
C1164       C  0.87192559  0.27435491  0.71135992    -0.23600
C1165       C  0.87103738  0.28662751  0.67247565     0.19400
C1166       C  0.88763454  0.33044074  0.66710128     0.24400
C1167       C  0.90492750  0.36265445  0.70067255    -0.23600
C1168       C  0.90407551  0.34995816  0.73986080     0.19300
F1169       F  0.92210689  0.38046801  0.77275723    -0.13500
F1170       F  0.88896579  0.29433705  0.78293484    -0.15900
F1171       F  0.88850211  0.34167992  0.62892217    -0.15900
F1172       F  0.85541339  0.25623669  0.63958405    -0.13500
C1173       C  0.71908694  0.13202254  0.72635726     0.24500
C1174       C  0.74845835  0.12407822  0.70693923    -0.23600
C1175       C  0.73123342  0.08778875  0.67735268     0.19400
C1176       C  0.68575820  0.06140264  0.66588363     0.24400
C1177       C  0.65659267  0.07014262  0.68427176    -0.23600
C1178       C  0.67326190  0.10477685  0.71541189     0.19300
F1179       F  0.64546915  0.11383997  0.73334275    -0.13500
F1180       F  0.73480701  0.16667370  0.75518451    -0.15900
F1181       F  0.67015809  0.02781787  0.63591376    -0.15900
F1182       F  0.75849760  0.07958194  0.65736650    -0.13500
C1183       C  0.91504990  0.11735463  0.92489585     0.24500
C1184       C  0.89413241  0.11138748  0.96008170    -0.23600
C1185       C  0.89698150  0.08479681  0.48759768     0.19400
C1186       C  0.91964466  0.06335394  0.97958364     0.24400
C1187       C  0.93887404  0.06785171  0.94336284    -0.23600
C1188       C  0.93675557  0.09543211  0.91639439     0.19300
F1189       F  0.95446899  0.09998695  0.88098158    -0.13500
F1190       F  0.91243064  0.14268065  0.89760775    -0.15900
F1191       F  0.92051941  0.03643417  0.50578048    -0.15900
F1192       F  0.87747639  0.07917648  0.52207366    -0.13500
C1193       C  0.89678169  0.31294728  0.94831205     0.24500
C1194       C  0.94303287  0.33826141  0.95990860    -0.23600
C1195       C  0.96362553  0.31717269  0.97622153     0.19400
C1196       C  0.93905052  0.27220945  0.98004343     0.24400
C1197       C  0.89296615  0.24670433  0.96783113    -0.23600
C1198       C  0.87208852  0.26782226  0.95237114     0.19300
F1199       F  0.82795272  0.24461554  0.93981999    -0.13500
F1200       F  0.87518961  0.33162690  0.93267274    -0.15900
F1201       F  0.96072426  0.25376339  0.99611064    -0.15900
F1202       F  0.00785898  0.33984038  0.98839460    -0.13500
C1203       C  0.68225377  0.03127907  0.96131823     0.24500
C1204       C  0.65833694  0.05158738  0.96861312    -0.23600
C1205       C  0.68231233  0.09719547  0.98068311     0.19400
C1206       C  0.72871248  0.12220693  0.98316597     0.24400
C1207       C  0.75273744  0.10240623  0.97366703    -0.23600
C1208       C  0.72869851  0.05624482  0.96365385     0.19300
F1209       F  0.74967438  0.03507419  0.95396041    -0.13500
F1210       F  0.66064766  0.98754988  0.94920275    -0.15900
F1211       F  0.74987303  0.16609562  0.99419708    -0.15900
F1212       F  0.66068697  0.11805480  0.98904339    -0.13500
C1213       C  0.86955455  0.63324820  0.96707397     0.81100
N1214       N  0.82548577  0.60957963  0.97030733    -0.77200
C1215       C  0.80198235  0.62956003  0.97267342     0.83600
N1216       N  0.82368031  0.67409854  0.97193883    -0.77100
C1217       C  0.86812839  0.69815131  0.96909329     0.83700
N1218       N  0.89034019  0.67713506  0.96613068    -0.78900
C1219       C  0.86901871  0.67043425  0.21100066     0.80900
N1220       N  0.88475461  0.71402767  0.21250233    -0.77200
C1221       C  0.85662626  0.72857840  0.21587814     0.83600
N1222       N  0.81268094  0.69942671  0.21589945    -0.77100
C1223       C  0.79671123  0.65578899  0.21374775     0.83700
N1224       N  0.82506264  0.64152009  0.21119009    -0.78900
C1225       C  0.63466280  0.83949372  0.33924895     0.81100
N1226       N  0.60979983  0.79500195  0.33800242    -0.77200
C1227       C  0.62921040  0.77112742  0.34027559     0.83600
N1228       N  0.67414168  0.79195587  0.34439620    -0.77100
C1229       C  0.69953798  0.83630745  0.34534610     0.83700
N1230       N  0.67961660  0.85983633  0.34340951    -0.78900
C1231       C  0.61403374  0.83796382  0.09529260     0.81100
N1232       N  0.65885153  0.86485623  0.10279366    -0.77200
C1233       C  0.68462955  0.84760471  0.10765636     0.83600
N1234       N  0.66526514  0.80351589  0.10564566    -0.77100
C1235       C  0.62073604  0.77651249  0.09858395     0.83700
N1236       N  0.59520476  0.79390640  0.09364529    -0.78900
O1237       O  0.58495887  0.48619211  0.45274367    -0.79200
O1238       O  0.94034746  0.51960968  0.39387698    -0.79300
O1239       O  0.55868828  0.58254235  0.39696047    -0.79300
O1240       O  0.94749333  0.95840855  0.49628117    -0.79200
O1241       O  0.50574366  0.55717183  0.34632503    -0.79300
O1242       O  0.51915571  0.98712713  0.49397197    -0.79300
O1243       O  0.97673634  0.52993824  0.45425648    -0.79200
O1244       O  0.59204195  0.54815614  0.44555143    -0.79300
C1245       C  0.60937835  0.52756178  0.45730566     1.10400
C1246       C  0.95397626  0.53861167  0.42993374     1.10300
C1247       C  0.53784943  0.58940368  0.36941780     1.10500
C1248       C  0.98626919  0.97744393  0.01455073     1.10300
O1249       O  0.01080868  0.90913262  0.46711107    -0.79200
O1250       O  0.98761149  0.47026489  0.31733919    -0.79300
O1251       O  0.58303864  0.98726677  0.37583199    -0.79300
O1252       O  0.90655858  0.94649734  0.42204027    -0.79200
O1253       O  0.91634440  0.93174622  0.36117865    -0.79300
O1254       O  0.52264823  0.92674774  0.38848513    -0.79300
O1255       O  0.95149491  0.90540216  0.43821981    -0.79200
O1256       O  0.55465501  0.52911508  0.32698114    -0.79300
Co1257     Co  0.51853991  0.95631309  0.43800144     1.51500
Co1258     Co  0.96464956  0.49341023  0.35702363     1.51700
Co1259     Co  0.56900591  0.53475215  0.38782546     1.51600
Co1260     Co  0.96891432  0.97107224  0.44570390     1.51500
O1261       O  0.00690985  0.99262873  0.40085296    -1.41200
C1262       C  0.96959433  0.88633137  0.45542895     1.10400
C1263       C  0.02211760  0.99836382  0.30338229     1.10500
C1264       C  0.55887433  0.94527556  0.37314565     1.10400
C1265       C  0.89019319  0.92658700  0.38697948     1.10400
O1266       O  0.57864305  0.52698219  0.19082520    -0.79200
O1267       O  0.93068864  0.54507734  0.14592590    -0.79300
O1268       O  0.55233624  0.58135886  0.14697779    -0.79300
O1269       O  0.01248756  0.02786827  0.24547036    -0.79200
O1270       O  0.49716494  0.56554801  0.10076187    -0.79300
O1271       O  0.51432336  0.96901071  0.23574682    -0.79300
O1272       O  0.97000743  0.56334168  0.20590460    -0.79200
O1273       O  0.59968927  0.54326327  0.13023794    -0.79300
C1274       C  0.60974411  0.54551097  0.16777205     1.10400
C1275       C  0.94762055  0.56990596  0.17930942     1.10300
C1276       C  0.53395763  0.59353222  0.12166107     1.10500
C1277       C  0.01947738  0.00013133  0.25969690     1.10300
O1278       O  0.95527864  0.91915592  0.16597349    -0.79200
O1279       O  0.95927453  0.47126358  0.07714747    -0.79300
O1280       O  0.52963751  0.96016267  0.11902183    -0.79300
O1281       O  0.89223039  0.97781677  0.18487789    -0.79200
O1282       O  0.89611467  0.95238186  0.12495331    -0.79300
O1283       O  0.54013222  0.93805361  0.17648120    -0.79300
O1284       O  0.93342562  0.93924716  0.21907892    -0.79200
O1285       O  0.52851714  0.52072408  0.07689249    -0.79300
Co1286     Co  0.51411347  0.97230280  0.17602808     1.51500
Co1287     Co  0.94750794  0.50745187  0.11426589     1.51700
Co1288     Co  0.53985732  0.52168595  0.13693960     1.51600
Co1289     Co  0.95478264  0.00297190  0.21152266     1.51500
O1290       O  0.98337703  0.00324911  0.16073917    -1.41200
C1291       C  0.93108653  0.90932484  0.19425115     1.10400
C1292       C  0.99229445  0.99011269  0.05805909     1.10500
C1293       C  0.53865632  0.93544464  0.13849592     1.10400
C1294       C  0.87349319  0.95241226  0.15214911     1.10400
C1295       C  0.55841574  0.69889587  0.08043865     0.24500
C1296       C  0.60009215  0.72931878  0.10172512    -0.23600
C1297       C  0.62068974  0.71461042  0.12829551     0.19400
C1298       C  0.59925634  0.67060381  0.13471402     0.24400
C1299       C  0.55681409  0.64013817  0.11439723    -0.23600
C1300       C  0.53703982  0.65467771  0.08649382     0.19300
F1301       F  0.49695096  0.62634993  0.06499623    -0.13500
F1302       F  0.53841869  0.71187966  0.05348666    -0.15900
F1303       F  0.62025064  0.65819299  0.16119617    -0.15900
F1304       F  0.66093942  0.74303999  0.14952908    -0.13500
C1305       C  0.79788338  0.94000639  0.15623641     0.24500
C1306       C  0.82490185  0.92494207  0.14343565    -0.23600
C1307       C  0.80557182  0.88527693  0.11802739     0.19400
C1308       C  0.76021994  0.86097171  0.10574980     0.24400
C1309       C  0.73301303  0.87578574  0.11843063    -0.23600
C1310       C  0.75223375  0.91570173  0.14363101     0.19300
F1311       F  0.72685173  0.93077930  0.15672607    -0.13500
F1312       F  0.81582930  0.97896683  0.17963474    -0.15900
F1313       F  0.74302863  0.82316393  0.08068942    -0.15900
F1314       F  0.83069693  0.86995460  0.10481671    -0.13500
C1315       C  0.53067550  0.86279175  0.12900512     0.24500
C1316       C  0.54787213  0.90494820  0.11722996    -0.23600
C1317       C  0.58009139  0.92046746  0.09040799     0.19400
C1318       C  0.59966856  0.89675934  0.08036847     0.24400
C1319       C  0.58610180  0.85680910  0.09608663    -0.23600
C1320       C  0.54927573  0.83846165  0.11803340     0.19300
F1321       F  0.53420039  0.79913813  0.13245766    -0.13500
F1322       F  0.49780573  0.84646102  0.15326922    -0.15900
F1323       F  0.63364412  0.91402354  0.05739514    -0.15900
F1324       F  0.59580385  0.96052815  0.07740118    -0.13500
C1325       C  0.57363032  0.69157419  0.31614264     0.24500
C1326       C  0.60248558  0.72463505  0.34723799    -0.23600
C1327       C  0.60584488  0.71337601  0.38618079     0.19400
C1328       C  0.58215111  0.66960423  0.39383472     0.24400
C1329       C  0.55515395  0.63578267  0.36235435    -0.23600
C1330       C  0.55031810  0.64732360  0.32354165     0.19300
F1331       F  0.52521263  0.61580553  0.29230383    -0.13500
F1332       F  0.56957097  0.70194398  0.27832156    -0.15900
F1333       F  0.58654752  0.66031117  0.43208816    -0.15900
F1334       F  0.63253897  0.74500749  0.41692763    -0.13500
C1335       C  0.77369126  0.84839064  0.33197634     0.24500
C1336       C  0.74830220  0.85925859  0.35476186    -0.23600
C1337       C  0.76964329  0.89162219  0.38800947     0.19400
C1338       C  0.81530001  0.91241127  0.39875807     0.24400
C1339       C  0.84120874  0.90204952  0.37594590    -0.23600
C1340       C  0.81987044  0.87006904  0.34208405     0.19300
F1341       F  0.84353249  0.85952292  0.31895994    -0.13500
F1342       F  0.75390746  0.81754307  0.29937737    -0.15900
F1343       F  0.83418691  0.94362447  0.43114533    -0.15900
F1344       F  0.74599324  0.90249518  0.41086351    -0.13500
C1345       C  0.61961951  0.93723571  0.34746495     0.24500
C1346       C  0.57576923  0.91777664  0.35700391    -0.23600
C1347       C  0.55002812  0.87165003  0.35578144     0.19400
C1348       C  0.56843315  0.84615830  0.34817493     0.24400
C1349       C  0.61325962  0.86589118  0.34142267    -0.23600
C1350       C  0.63805292  0.91169225  0.33974240     0.19300
F1351       F  0.68078055  0.93233792  0.33174059    -0.13500
F1352       F  0.64569777  0.98138387  0.34740093    -0.15900
F1353       F  0.54246633  0.80219526  0.34950096    -0.15900
F1354       F  0.50725747  0.85089160  0.36373193    -0.13500
C1355       C  0.92985605  0.61235249  0.22852950     0.24500
C1356       C  0.93630798  0.60343632  0.18874604    -0.23600
C1357       C  0.92592114  0.62230697  0.15741221     0.19400
C1358       C  0.90697526  0.64724138  0.16531974     0.24400
C1359       C  0.89787137  0.65340702  0.20452833    -0.23600
C1360       C  0.91035127  0.63678108  0.23619262     0.19300
F1361       F  0.90127936  0.64211228  0.27418306    -0.13500
F1362       F  0.93875496  0.59430020  0.25951019    -0.15900
F1363       F  0.89469564  0.66280322  0.13422946    -0.15900
F1364       F  0.93227783  0.61500987  0.11882167    -0.13500
C1365       C  0.88790125  0.80599664  0.24522582     0.24500
C1366       C  0.87197768  0.77441494  0.21146435    -0.23600
C1367       C  0.87101319  0.78667282  0.17258341     0.19400
C1368       C  0.88761777  0.83048599  0.16720280     0.24400
C1369       C  0.90498971  0.86271614  0.20076522    -0.23600
C1370       C  0.90421172  0.85003712  0.23995387     0.19300
F1371       F  0.92231460  0.88056267  0.27283855    -0.13500
F1372       F  0.88917844  0.79443252  0.28302997    -0.15900
F1373       F  0.88841737  0.84170826  0.12902279    -0.15900
F1374       F  0.85531546  0.75626704  0.13969657    -0.13500
C1375       C  0.71911683  0.63201956  0.22636103     0.24500
C1376       C  0.74849037  0.62412790  0.20688371    -0.23600
C1377       C  0.73126789  0.58788730  0.17724221     0.19400
C1378       C  0.68578972  0.56148755  0.16579237     0.24400
C1379       C  0.65661804  0.57016570  0.18425158    -0.23600
C1380       C  0.67329013  0.60476241  0.21543150     0.19300
F1381       F  0.64549513  0.61377608  0.23342454    -0.13500
F1382       F  0.73483596  0.66662431  0.25524086    -0.15900
F1383       F  0.67019206  0.52794425  0.13578000    -0.15900
F1384       F  0.75853431  0.57973653  0.15719610    -0.13500
C1385       C  0.91500956  0.61738244  0.42478410     0.24500
C1386       C  0.89410877  0.61145868  0.45997541    -0.23600
C1387       C  0.89684603  0.58465660  0.98759782     0.19400
C1388       C  0.91967483  0.56349276  0.47956460     0.24400
C1389       C  0.93888498  0.56794241  0.44333836    -0.23600
C1390       C  0.93673595  0.59547222  0.41632528     0.19300
F1391       F  0.95443582  0.59998497  0.38090841    -0.13500
F1392       F  0.91235681  0.64265435  0.39745316    -0.15900
F1393       F  0.92034352  0.53626606  0.00579613    -0.15900
F1394       F  0.87726637  0.57898816  0.02203318    -0.13500
C1395       C  0.89681137  0.81305353  0.44823802     0.24500
C1396       C  0.94306522  0.83834846  0.45981799    -0.23600
C1397       C  0.96365374  0.81723948  0.47609011     0.19400
C1398       C  0.93906954  0.77227460  0.47989342     0.24400
C1399       C  0.89297995  0.74678880  0.46770156    -0.23600
C1400       C  0.87210825  0.76792597  0.45227826     0.19300
F1401       F  0.82796837  0.74473754  0.43974716    -0.13500
F1402       F  0.87522492  0.83175524  0.43263693    -0.15900
F1403       F  0.96073901  0.75380789  0.49592321    -0.15900
F1404       F  0.00789201  0.83988925  0.48823881    -0.13500
C1405       C  0.68225427  0.53139727  0.46139996     0.24500
C1406       C  0.65835156  0.55171988  0.46869952    -0.23600
C1407       C  0.68234048  0.59734055  0.48070558     0.19400
C1408       C  0.72873664  0.62234634  0.48312300     0.24400
C1409       C  0.75274316  0.60252582  0.47362308    -0.23600
C1410       C  0.72869318  0.55635618  0.46366866     0.19300
F1411       F  0.74964994  0.53516769  0.45396981    -0.13500
F1412       F  0.66063463  0.48765470  0.44934469    -0.15900
F1413       F  0.74990812  0.66624704  0.49408994    -0.15900
F1414       F  0.66073155  0.61821718  0.48906446    -0.13500
C1415       C  0.86959838  0.63334437  0.46704690     0.81100
N1416       N  0.82552894  0.60967867  0.47027771    -0.77200
C1417       C  0.80202968  0.62966345  0.47264471     0.83600
N1418       N  0.82373331  0.67420271  0.47191415    -0.77100
C1419       C  0.86818162  0.69825177  0.46906994     0.83700
N1420       N  0.89038874  0.67723133  0.46610572    -0.78900
C1421       C  0.86898408  0.67041392  0.71101049     0.80900
N1422       N  0.88471479  0.71400342  0.71246339    -0.77200
C1423       C  0.85658634  0.72855582  0.71582454     0.83600
N1424       N  0.81264525  0.69940935  0.71587309    -0.77100
C1425       C  0.79668015  0.65577513  0.71376374     0.83700
N1426       N  0.82503170  0.64150435  0.71122903    -0.78900
C1427       C  0.63461293  0.83940285  0.83927587     0.81100
N1428       N  0.60975699  0.79491002  0.83801872    -0.77200
C1429       C  0.62917731  0.77104535  0.84030087     0.83600
N1430       N  0.67410869  0.79188361  0.84443631    -0.77100
C1431       C  0.69949698  0.83623516  0.84539548     0.83700
N1432       N  0.67956826  0.85975637  0.84345393    -0.78900
C1433       C  0.61401736  0.83799063  0.59521461     0.81100
N1434       N  0.65883634  0.86487489  0.60271768    -0.77200
C1435       C  0.68460475  0.84761645  0.60761403     0.83600
N1436       N  0.66523017  0.80352941  0.60563806    -0.77100
C1437       C  0.62070143  0.77653335  0.59857459     0.83700
N1438       N  0.59517938  0.79393324  0.59359820    -0.78900
O1439       O  0.58491152  0.48608398  0.95272520    -0.79200
O1440       O  0.94030984  0.51952838  0.89388567    -0.79300
O1441       O  0.55865150  0.58244257  0.89695964    -0.79300
O1442       O  0.94747207  0.95830857  0.99630029    -0.79200
O1443       O  0.50570500  0.55709372  0.84633009    -0.79300
O1444       O  0.51913201  0.98703933  0.99397147    -0.79300
O1445       O  0.97670847  0.52985457  0.95425920    -0.79200
O1446       O  0.59200346  0.54805229  0.94553900    -0.79300
C1447       C  0.60933385  0.52745298  0.95729337     1.10400
C1448       C  0.95394326  0.53852796  0.92994284     1.10300
C1449       C  0.53781653  0.58931718  0.86942491     1.10500
C1450       C  0.98628456  0.97753266  0.51454301     1.10300
O1451       O  0.01075763  0.90902632  0.96710243    -0.79200
O1452       O  0.98755272  0.47018360  0.81731963    -0.79300
O1453       O  0.58296735  0.98715247  0.87581197    -0.79300
O1454       O  0.90652230  0.94641900  0.92207180    -0.79200
O1455       O  0.91628944  0.93168026  0.86119849    -0.79300
O1456       O  0.52257911  0.92663912  0.88847834    -0.79300
O1457       O  0.95144509  0.90530092  0.93821840    -0.79200
O1458       O  0.55460885  0.52902624  0.82697117    -0.79300
Co1459     Co  0.51849271  0.95621356  0.93799927     1.51500
Co1460     Co  0.96460317  0.49332754  0.85702213     1.51700
Co1461     Co  0.56896099  0.53465109  0.88781432     1.51600
Co1462     Co  0.96887914  0.97097542  0.94571736     1.51500
O1463       O  0.00686091  0.99253308  0.90085482    -1.41200
C1464       C  0.96954210  0.88622667  0.95542504     1.10400
C1465       C  0.02204349  0.99828361  0.80337394     1.10500
C1466       C  0.55880039  0.94516213  0.87313112     1.10400
C1467       C  0.89014789  0.92651670  0.88701001     1.10400
O1468       O  0.57861711  0.52696906  0.69082110    -0.79200
O1469       O  0.93067335  0.54508911  0.64593563    -0.79300
O1470       O  0.55231578  0.58138435  0.64699970    -0.79300
O1471       O  0.01242647  0.02781537  0.74547471    -0.79200
O1472       O  0.49715167  0.56557563  0.60077660    -0.79300
O1473       O  0.51425259  0.96895259  0.73572334    -0.79300
O1474       O  0.96998318  0.56332235  0.70591850    -0.79200
O1475       O  0.59968576  0.54330985  0.63024759    -0.79300
C1476       C  0.60972595  0.54552214  0.66777896     1.10400
C1477       C  0.94759948  0.56989869  0.67933017     1.10300
C1478       C  0.53393690  0.59355973  0.62168484     1.10500
C1479       C  0.01940610  0.00006647  0.75968828     1.10300
O1480       O  0.95523337  0.91914323  0.66592223    -0.79200
O1481       O  0.95927318  0.47130130  0.57713396    -0.79300
O1482       O  0.52963839  0.96020620  0.61899973    -0.79300
O1483       O  0.89218975  0.97780152  0.68486221    -0.79200
O1484       O  0.89608244  0.95238962  0.62492898    -0.79300
O1485       O  0.54008189  0.93802911  0.67643643    -0.79300
O1486       O  0.93336778  0.93920781  0.71903460    -0.79200
O1487       O  0.52851930  0.52077575  0.57689881    -0.79300
Co1488     Co  0.51406286  0.97228028  0.67600653     1.51500
Co1489     Co  0.94749340  0.50747071  0.61426087     1.51700
Co1490     Co  0.53985182  0.52171684  0.63694123     1.51600
Co1491     Co  0.95473218  0.00293995  0.71151494     1.51500
O1492       O  0.98333918  0.00324575  0.66073398    -1.41200
C1493       C  0.93103324  0.90929698  0.69419417     1.10400
C1494       C  0.99229357  0.99017784  0.55805534     1.10500
C1495       C  0.53864194  0.93546662  0.63845361     1.10400
C1496       C  0.87345857  0.95240868  0.65212752     1.10400
C1497       C  0.55838102  0.69891433  0.58045250     0.24500
C1498       C  0.60004980  0.72934474  0.60174647    -0.23600
C1499       C  0.62064130  0.71464800  0.62833848     0.19400
C1500       C  0.59921293  0.67064276  0.63476272     0.24400
C1501       C  0.55678339  0.64016743  0.61442877    -0.23600
C1502       C  0.53701309  0.65469798  0.58650987     0.19300
F1503       F  0.49693932  0.62636048  0.56499216    -0.13500
F1504       F  0.53838739  0.71188779  0.55348535    -0.15900
F1505       F  0.62020154  0.65824107  0.66126150    -0.15900
F1506       F  0.66088246  0.74308622  0.64958249    -0.13500
C1507       C  0.79786276  0.94004442  0.65615314     0.24500
C1508       C  0.82487090  0.92494293  0.64341318    -0.23600
C1509       C  0.80553729  0.88524317  0.61806053     0.19400
C1510       C  0.76018699  0.86093767  0.60577675     0.24400
C1511       C  0.73298797  0.87579027  0.61839363    -0.23600
C1512       C  0.75221572  0.91574147  0.64353989     0.19300
F1513       F  0.72684350  0.93085761  0.65657475    -0.13500
F1514       F  0.81581825  0.97903920  0.67949600    -0.15900
F1515       F  0.74299013  0.82309091  0.58077321    -0.15900
F1516       F  0.83065874  0.86988877  0.60491346    -0.13500
C1517       C  0.53062012  0.86279945  0.62885767     0.24500
C1518       C  0.54787677  0.90499543  0.61716441    -0.23600
C1519       C  0.58015236  0.92055988  0.59039788     0.19400
C1520       C  0.59972140  0.89684709  0.58034264     0.24400
C1521       C  0.58609348  0.85684966  0.59599013    -0.23600
C1522       C  0.54921083  0.83846555  0.61786671     0.19300
F1523       F  0.53406205  0.79909205  0.63220916    -0.13500
F1524       F  0.49769390  0.84642669  0.65305995    -0.15900
F1525       F  0.63374717  0.91415095  0.55742722    -0.15900
F1526       F  0.59591941  0.96065905  0.57746226    -0.13500
C1527       C  0.57351992  0.69150449  0.81619248     0.24500
C1528       C  0.60246175  0.72455347  0.84726138    -0.23600
C1529       C  0.60591082  0.71328530  0.88618183     0.19400
C1530       C  0.58221532  0.66951679  0.89383752     0.24400
C1531       C  0.55513204  0.63570216  0.86237634    -0.23600
C1532       C  0.55020922  0.64725290  0.82358932     0.19300
F1533       F  0.52500984  0.61574428  0.79237009    -0.13500
F1534       F  0.56937369  0.70188469  0.77839443    -0.15900
F1535       F  0.58669378  0.66022079  0.93207343    -0.15900
F1536       F  0.63268825  0.74490664  0.91690731    -0.13500
C1537       C  0.77364741  0.84833525  0.83201247     0.24500
C1538       C  0.74825928  0.85918980  0.85481221    -0.23600
C1539       C  0.76959788  0.89153552  0.88807355     0.19400
C1540       C  0.81525479  0.91232300  0.89881908     0.24400
C1541       C  0.84116344  0.90197787  0.87598829    -0.23600
C1542       C  0.81982544  0.87001192  0.84211678     0.19300
F1543       F  0.84348641  0.85947795  0.81897904    -0.13500
F1544       F  0.75386376  0.81750142  0.79940327    -0.15900
F1545       F  0.83414204  0.94351753  0.93122124    -0.15900
F1546       F  0.74594510  0.90239082  0.91094240    -0.13500
C1547       C  0.61953931  0.93712274  0.84744343     0.24500
C1548       C  0.57569328  0.91766184  0.85699297    -0.23600
C1549       C  0.54996152  0.87153698  0.85579278     0.19400
C1550       C  0.56837466  0.84605075  0.84819929     0.24400
C1551       C  0.61319910  0.86578876  0.84143797    -0.23600
C1552       C  0.63798132  0.91158536  0.83973605     0.19300
F1553       F  0.68070673  0.93223371  0.83172809    -0.13500
F1554       F  0.64560725  0.98126851  0.84735584    -0.15900
F1555       F  0.54242062  0.80209082  0.84954998    -0.15900
F1556       F  0.50719492  0.85077716  0.86375558    -0.13500
C1557       C  0.92965369  0.61217166  0.72855252     0.24500
C1558       C  0.93627829  0.60341475  0.68879268    -0.23600
C1559       C  0.92605141  0.62242695  0.65749060     0.19400
C1560       C  0.90711354  0.64736959  0.66539946     0.24400
C1561       C  0.89783714  0.65337978  0.70457335    -0.23600
C1562       C  0.91014001  0.63659139  0.73621242     0.19300
F1563       F  0.90089408  0.64176449  0.77416572    -0.13500
F1564       F  0.93838784  0.59396838  0.75949505    -0.15900
F1565       F  0.89499895  0.66308190  0.63433069    -0.15900
F1566       F  0.93255869  0.61526271  0.61892399    -0.13500
C1567       C  0.88779584  0.80596068  0.74515991     0.24500
C1568       C  0.87193533  0.77438792  0.71139818    -0.23600
C1569       C  0.87102205  0.78664940  0.67251245     0.19400
C1570       C  0.88762084  0.83046112  0.66712938     0.24400
C1571       C  0.90493770  0.86268443  0.70069391    -0.23600
C1572       C  0.90410364  0.84999859  0.73988543     0.19300
F1573       F  0.92215007  0.88051686  0.77277537    -0.13500
F1574       F  0.88901659  0.79439022  0.78296942    -0.15900
F1575       F  0.88846746  0.84168814  0.62894734    -0.15900
F1576       F  0.85537418  0.75624924  0.63962581    -0.13500
C1577       C  0.71909075  0.63201762  0.72637551     0.24500
C1578       C  0.74846167  0.62411321  0.70690889    -0.23600
C1579       C  0.73123851  0.58786634  0.67727564     0.19400
C1580       C  0.68576158  0.56147157  0.66582148     0.24400
C1581       C  0.65659358  0.57016266  0.68426938    -0.23600
C1582       C  0.67326501  0.60476552  0.71544287     0.19300
F1583       F  0.64547134  0.61379055  0.73342206    -0.13500
F1584       F  0.73481232  0.66663322  0.75524394    -0.15900
F1585       F  0.67016254  0.52792493  0.63581261    -0.15900
F1586       F  0.75850429  0.57970763  0.65723652    -0.13500
C1587       C  0.91499821  0.61731882  0.92482382     0.24500
C1588       C  0.89406864  0.61136550  0.96000051    -0.23600
C1589       C  0.89691587  0.58478100  0.48759164     0.19400
C1590       C  0.91960880  0.56337247  0.97956840     0.24400
C1591       C  0.93885025  0.56785474  0.94335665    -0.23600
C1592       C  0.93672628  0.59541078  0.91636117     0.19300
F1593       F  0.95445180  0.59995063  0.88095583    -0.13500
F1594       F  0.91237042  0.64261637  0.89750799    -0.15900
F1595       F  0.92043696  0.53641493  0.50581186    -0.15900
F1596       F  0.87736907  0.57914770  0.52204381    -0.13500
C1597       C  0.89676233  0.81293980  0.94820475     0.24500
C1598       C  0.94301029  0.83824382  0.95981905    -0.23600
C1599       C  0.96359023  0.81714453  0.97613333     0.19400
C1600       C  0.93900444  0.77218068  0.97994433     0.24400
C1601       C  0.89292221  0.74668719  0.96771966    -0.23600
C1602       C  0.87205772  0.76781381  0.95225395     0.19300
F1603       F  0.82792526  0.74461502  0.93968775    -0.13500
F1604       F  0.87518447  0.83163024  0.93255776    -0.15900
F1605       F  0.96066424  0.75372240  0.99601430    -0.15900
F1606       F  0.00782106  0.83980237  0.98831875    -0.13500
C1607       C  0.68220886  0.53128923  0.96139022     0.24500
C1608       C  0.65830390  0.55160681  0.96870169    -0.23600
C1609       C  0.68228958  0.59722200  0.98073552     0.19400
C1610       C  0.72868633  0.62222976  0.98316504     0.24400
C1611       C  0.75269589  0.60241717  0.97364882    -0.23600
C1612       C  0.72864860  0.55625091  0.96367116     0.19300
F1613       F  0.74960877  0.53506929  0.95395946    -0.13500
F1614       F  0.66059160  0.48755240  0.94930921    -0.15900
F1615       F  0.74985668  0.66612561  0.99416092    -0.15900
F1616       F  0.66067619  0.61809058  0.98910923    -0.13500
loop_ 
_geom_bond_atom_site_label_1 
_geom_bond_atom_site_label_2 
_geom_bond_distance 
_geom_bond_site_symmetry_2 
_ccdc_geom_bond_type 
C1            N2   1.358       .  A
C1            N6   1.352       .  A
C1          C376   1.471       .  S
N2            C3   1.363       .  A
C3            N4   1.370       .  A
C3          C399   1.504       .  S
N4            C5   1.367       .  A
C5            N6   1.355       .  A
C5          C389   1.494       .  S
C7            N8   1.357       .  A
C7           N12   1.356       .  A
C7          C147   1.467       .  S
N8            C9   1.360       .  A
C9           N10   1.356       .  A
C9          C154   1.461       .  S
N10          C11   1.356       .  A
C11          N12   1.357       .  A
C11         C164   1.474       .  S
C13          N14   1.361       .  A
C13          N18   1.362       .  A
C13         C137   1.498       .  S
N14          C15   1.358       .  A
C15          N16   1.360       .  A
C15         C114   1.473       .  S
N16          C17   1.359       .  A
C17          N18   1.361       .  A
C17         C124   1.482       .  S
C19          N20   1.361       .  A
C19          N24   1.355       .  A
C19         C107   1.469       .  S
N20          C21   1.358       .  A
C21          N22   1.353       .  A
C21          C97   1.475       .  S
N22          C23   1.352       .  A
C23          N24   1.354       .  A
C23          C84   1.470       .  S
O25          C33   1.263   1_565  A
O25        Co449   2.031       .  S
O26          C34   1.275       .  A
O26         Co46   2.004   1_545  S
O27          C35   1.258       .  A
O27         Co47   1.948       .  S
O28         C238   1.263       .  A
O28         Co48   1.885       .  S
O29          C35   1.277       .  A
O29        Co854   2.047   1_445  S
O30        C1046   1.296   1_455  A
O30         Co45   2.107       .  S
O31          C34   1.272       .  A
O31        Co452   1.985   1_545  S
O32          C33   1.251       .  A
O32         Co47   1.969       .  S
C33         C194   1.494       .  S
C34         C177   1.474       .  S
C35         C117   1.487       .  S
C36          C80   1.462       .  S
C36         O230   1.263   1_554  A
C36        O1040   1.296   1_554  A
O37          C50   1.268       .  A
O37        Co853   1.909       .  S
O38         C455   1.259       .  A
O38         Co46   1.962       .  S
O39          C52   1.282       .  A
O39        Co451   2.040       .  S
O40          C53   1.261       .  A
O40         Co48   1.992       .  S
O41          C53   1.264       .  A
O41        Co450   1.997       .  S
O42          C52   1.269       .  A
O42         Co45   1.967       .  S
O43          C50   1.294       .  A
O43         Co48   2.098       .  S
O44        C1263   1.271   1_545  A
O44         Co47   2.031       .  S
Co45        O429   2.031       .  S
Co45        O845   1.909       .  S
Co45        O857   2.027       .  S
Co46        O837   2.047   1_565  S
Co46        O445   1.997       .  S
Co46        O453   2.039       .  S
Co47        O443   2.040   1_545  S
Co47       O1261   2.026   1_545  S
Co48        O435   1.984       .  S
Co48         O49   2.002       .  S
O49        Co853   2.027       .  S
O49        Co450   2.039       .  S
O49       Co1259   2.026       .  S
C50         C184   1.496       .  S
C51          C65   1.463       .  S
C51         O442   1.259       .  A
C51        O1256   1.271       .  A
C52         C134   1.495       .  S
C53         C127   1.492       .  S
O54          C62   1.295       .  A
O54        Co478   2.098   1_545  S
O55          C63   1.276       .  A
O55         Co75   2.018       .  S
O56          C64   1.266       .  A
O56         Co76   1.952       .  S
O57          C65   1.258       .  A
O57         Co77   1.987       .  S
O58          C64   1.276   1_655  A
O58        Co883   2.015       .  S
O59         C873   1.257       .  A
O59         Co74   2.004       .  S
O60          C63   1.267       .  A
O60        Co481   1.969       .  S
O61          C62   1.265       .  A
O61         Co76   1.887       .  S
C62         C167   1.465       .  S
C63         C144   1.482       .  S
C64          C87   1.477       .  S
C65         O867   1.257       .  A
O66          C79   1.263       .  A
O66        Co882   1.950       .  S
O67         C484   1.255       .  A
O67         Co75   1.963   1_565  S
O68          C81   1.286       .  A
O68        Co480   2.085       .  S
O69          C82   1.271       .  A
O69         Co77   2.025       .  S
O70          C82   1.256       .  A
O70        Co479   1.949       .  S
O71          C81   1.262       .  A
O71         Co74   1.890       .  S
O72          C79   1.281       .  A
O72         Co77   2.041       .  S
O73        C1292   1.262   1_445  A
O73         Co76   2.012       .  S
Co74        O458   2.098       .  S
Co74        O874   1.950   1_455  S
Co74        O886   1.992   1_455  S
Co75        O866   2.016       .  S
Co75        O474   1.949   1_545  S
Co75        O482   2.005       .  S
Co76        O472   2.085   1_545  S
Co76       O1290   2.007   1_455  S
Co77        O464   1.969       .  S
Co77         O78   2.037       .  S
O78        Co882   1.992       .  S
O78        Co479   2.005       .  S
O78       Co1288   2.007       .  S
C79         C157   1.471       .  S
C80         O471   1.255       .  A
C80        O1285   1.262       .  A
C81         C104   1.460       .  S
C82          C94   1.473       .  S
C83          C84   1.404       .  A
C83          C88   1.394       .  A
C83          F90   1.358       .  S
C84          C85   1.406       .  A
C85          C86   1.391       .  A
C85          F92   1.358       .  S
C86          C87   1.409       .  A
C86          F91   1.358       .  S
C87          C88   1.411       .  A
C88          F89   1.358   1_455  S
C93          C94   1.407       .  A
C93          C98   1.402       .  A
C93         F100   1.358       .  S
C94          C95   1.405       .  A
C95          C96   1.391       .  A
C95         F102   1.357       .  S
C96          C97   1.405       .  A
C96         F101   1.358       .  S
C97          C98   1.409       .  A
C98          F99   1.358       .  S
C103        C104   1.401       .  A
C103        C108   1.393       .  A
C103        F110   1.359   1_455  S
C104        C105   1.403       .  A
C105        C106   1.395       .  A
C105        F112   1.358       .  S
C106        C107   1.405       .  A
C106        F111   1.358       .  S
C107        C108   1.409       .  A
C108        F109   1.358       .  S
C113        C114   1.405       .  A
C113        C118   1.406       .  A
C113        F120   1.357       .  S
C114        C115   1.401       .  A
C115        C116   1.395       .  A
C115        F122   1.359       .  S
C116        C117   1.411       .  A
C116        F121   1.359       .  S
C117        C118   1.411       .  A
C118        F119   1.357       .  S
C123        C124   1.408       .  A
C123        C128   1.408       .  A
C123        F130   1.357       .  S
C124        C125   1.402       .  A
C125        C126   1.397       .  A
C125        F132   1.358       .  S
C126        C127   1.413       .  A
C126        F131   1.358       .  S
C127        C128   1.410       .  A
C128        F129   1.357       .  S
C133        C134   1.411       .  A
C133        C138   1.403       .  A
C133        F140   1.358       .  S
C134        C135   1.411       .  A
C135        C136   1.400       .  A
C135        F142   1.358       .  S
C136        C137   1.412       .  A
C136        F141   1.358       .  S
C137        C138   1.412       .  A
C138        F139   1.358       .  S
C143        C144   1.410       .  A
C143        C148   1.399       .  A
C143        F150   1.357       .  S
C144        C145   1.409       .  A
C145        C146   1.400       .  A
C145        F152   1.358       .  S
C146        C147   1.403       .  A
C146        F151   1.358       .  S
C147        C148   1.401       .  A
C148        F149   1.358       .  S
C153        C154   1.402       .  A
C153        C158   1.401       .  A
C153        F160   1.358       .  S
C154        C155   1.400       .  A
C155        C156   1.393       .  A
C155        F162   1.358       .  S
C156        C157   1.407       .  A
C156        F161   1.358       .  S
C157        C158   1.409       .  A
C158        F159   1.358       .  S
C163        C164   1.409       .  A
C163        C168   1.402       .  A
C163        F170   1.358       .  S
C164        C165   1.407       .  A
C165        C166   1.392       .  A
C165        F172   1.358       .  S
C166        C167   1.402       .  A
C166        F171   1.358       .  S
C167        C168   1.404       .  A
C168        F169   1.358       .  S
C173        C174   1.403       .  A
C173        C178   1.394       .  A
C173        F180   1.358       .  S
C174        C203   1.471       .  S
C174        C377   1.405       .  A
C175        C376   1.405       .  A
C175        C378   1.404       .  A
C175        F182   1.358   1_556  S
C176        C177   1.408       .  A
C176        C377   1.404       .  A
C176        F383   1.358       .  S
C177        C178   1.406       .  A
C178        F179   1.358       .  S
F181        C378   1.358   1_554  S
C183        C184   1.414       .  A
C183        C188   1.406       .  A
C183        F190   1.358       .  S
C184        C185   1.409       .  A
C185        C186   1.400       .  A
C185        F192   1.358       .  S
C186        C187   1.412       .  A
C186        F191   1.358       .  S
C187        C207   1.494       .  S
C187        C188   1.408       .  A
C188        F189   1.357       .  S
C193        C194   1.407       .  A
C193        C198   1.405       .  A
C193        F200   1.358   1_545  S
C194        C195   1.411       .  A
C195        C196   1.404       .  A
C195        F202   1.358       .  S
C196        C197   1.411       .  A
C196        F201   1.358       .  S
C197        C205   1.504       .  S
C197        C198   1.417       .  A
C198        F199   1.358       .  S
C203        N204   1.358       .  A
C203        N208   1.352       .  A
N204        C205   1.363       .  A
C205        N206   1.370       .  A
N206        C207   1.367       .  A
C207        N208   1.355       .  A
C209        N210   1.357       .  A
C209        N214   1.356       .  A
C209        C349   1.467       .  S
N210        C211   1.360       .  A
C211        N212   1.356       .  A
C211        C356   1.461       .  S
N212        C213   1.356       .  A
C213        N214   1.357       .  A
C213        C366   1.474       .  S
C215        N216   1.361       .  A
C215        N220   1.362       .  A
C215        C339   1.498       .  S
N216        C217   1.358       .  A
C217        N218   1.360       .  A
C217        C316   1.473       .  S
N218        C219   1.359       .  A
C219        N220   1.361       .  A
C219        C326   1.482       .  S
C221        N222   1.361       .  A
C221        N226   1.355       .  A
C221        C309   1.469       .  S
N222        C223   1.358       .  A
C223        N224   1.353       .  A
C223        C299   1.475       .  S
N224        C225   1.352       .  A
C225        N226   1.354       .  A
C225        C286   1.470       .  S
O227        C235   1.263   1_565  A
O227       Co651   2.031       .  S
O228        C236   1.275       .  A
O228       Co248   2.004   1_545  S
O229        C237   1.258       .  A
O229       Co249   1.948       .  S
O230       Co250   1.885       .  S
O231        C237   1.277       .  A
O231      Co1056   2.047   1_445  S
O232        C844   1.296   1_456  A
O232       Co247   2.107       .  S
O233        C236   1.272       .  A
O233       Co654   1.985   1_545  S
O234        C235   1.251       .  A
O234       Co249   1.969       .  S
C235        C396   1.494       .  S
C236        C379   1.474       .  S
C237        C319   1.487       .  S
C238        C282   1.462       .  S
C238        O838   1.296       .  A
O239        C252   1.268       .  A
O239      Co1055   1.909       .  S
O240        C657   1.259       .  A
O240       Co248   1.962       .  S
O241        C254   1.282       .  A
O241       Co653   2.040       .  S
O242        C255   1.261       .  A
O242       Co250   1.992       .  S
O243        C255   1.264       .  A
O243       Co652   1.997       .  S
O244        C254   1.269       .  A
O244       Co247   1.967       .  S
O245        C252   1.294       .  A
O245       Co250   2.098       .  S
O246       C1465   1.271   1_545  A
O246       Co249   2.032       .  S
Co247       O631   2.031       .  S
Co247      O1047   1.909       .  S
Co247      O1059   2.027       .  S
Co248      O1039   2.047   1_565  S
Co248       O647   1.997       .  S
Co248       O655   2.039       .  S
Co249       O645   2.040   1_545  S
Co249      O1463   2.026   1_545  S
Co250       O637   1.985       .  S
Co250       O251   2.002       .  S
O251      Co1055   2.027       .  S
O251       Co652   2.039       .  S
O251      Co1461   2.026       .  S
C252        C386   1.496       .  S
C253        C267   1.463       .  S
C253        O644   1.259       .  A
C253       O1458   1.271       .  A
C254        C336   1.495       .  S
C255        C329   1.492       .  S
O256        C264   1.295       .  A
O256       Co680   2.098   1_545  S
O257        C265   1.276       .  A
O257       Co277   2.018       .  S
O258        C266   1.266       .  A
O258       Co278   1.952       .  S
O259        C267   1.258       .  A
O259       Co279   1.987       .  S
O260        C266   1.276   1_655  A
O260      Co1085   2.015       .  S
O261       C1075   1.257       .  A
O261       Co276   2.005       .  S
O262        C265   1.267       .  A
O262       Co683   1.969       .  S
O263        C264   1.265       .  A
O263       Co278   1.887       .  S
C264        C369   1.465       .  S
C265        C346   1.482       .  S
C266        C289   1.477       .  S
C267       O1069   1.257       .  A
O268        C281   1.263       .  A
O268      Co1084   1.950       .  S
O269        C686   1.255       .  A
O269       Co277   1.963   1_565  S
O270        C283   1.287       .  A
O270       Co682   2.085       .  S
O271        C284   1.271       .  A
O271       Co279   2.025       .  S
O272        C284   1.256       .  A
O272       Co681   1.949       .  S
O273        C283   1.262       .  A
O273       Co276   1.890       .  S
O274        C281   1.281       .  A
O274       Co279   2.041       .  S
O275       C1494   1.262   1_445  A
O275       Co278   2.012       .  S
Co276       O660   2.098       .  S
Co276      O1076   1.950   1_455  S
Co276      O1088   1.992   1_455  S
Co277      O1068   2.015       .  S
Co277       O676   1.949   1_545  S
Co277       O684   2.005       .  S
Co278       O674   2.085   1_545  S
Co278      O1492   2.007   1_455  S
Co279       O666   1.969       .  S
Co279       O280   2.037       .  S
O280      Co1084   1.992       .  S
O280       Co681   2.005       .  S
O280      Co1490   2.007       .  S
C281        C359   1.471       .  S
C282        O673   1.255       .  A
C282       O1487   1.262       .  A
C283        C306   1.460       .  S
C284        C296   1.473       .  S
C285        C286   1.404       .  A
C285        C290   1.394       .  A
C285        F292   1.358       .  S
C286        C287   1.406       .  A
C287        C288   1.391       .  A
C287        F294   1.358       .  S
C288        C289   1.409       .  A
C288        F293   1.358       .  S
C289        C290   1.411       .  A
C290        F291   1.358   1_455  S
C295        C296   1.407       .  A
C295        C300   1.402       .  A
C295        F302   1.358       .  S
C296        C297   1.405       .  A
C297        C298   1.391       .  A
C297        F304   1.357       .  S
C298        C299   1.405       .  A
C298        F303   1.358       .  S
C299        C300   1.409       .  A
C300        F301   1.358       .  S
C305        C306   1.401       .  A
C305        C310   1.393       .  A
C305        F312   1.359   1_455  S
C306        C307   1.403       .  A
C307        C308   1.395       .  A
C307        F314   1.358       .  S
C308        C309   1.405       .  A
C308        F313   1.358       .  S
C309        C310   1.409       .  A
C310        F311   1.358       .  S
C315        C316   1.405       .  A
C315        C320   1.406       .  A
C315        F322   1.357       .  S
C316        C317   1.400       .  A
C317        C318   1.395       .  A
C317        F324   1.359       .  S
C318        C319   1.411       .  A
C318        F323   1.359       .  S
C319        C320   1.411       .  A
C320        F321   1.357       .  S
C325        C326   1.408       .  A
C325        C330   1.408       .  A
C325        F332   1.357       .  S
C326        C327   1.402       .  A
C327        C328   1.397       .  A
C327        F334   1.358       .  S
C328        C329   1.413       .  A
C328        F333   1.358       .  S
C329        C330   1.410       .  A
C330        F331   1.357       .  S
C335        C336   1.411       .  A
C335        C340   1.403       .  A
C335        F342   1.358       .  S
C336        C337   1.411       .  A
C337        C338   1.400       .  A
C337        F344   1.358       .  S
C338        C339   1.412       .  A
C338        F343   1.358       .  S
C339        C340   1.412       .  A
C340        F341   1.358       .  S
C345        C346   1.410       .  A
C345        C350   1.399       .  A
C345        F352   1.357       .  S
C346        C347   1.409       .  A
C347        C348   1.400       .  A
C347        F354   1.358       .  S
C348        C349   1.403       .  A
C348        F353   1.358       .  S
C349        C350   1.401       .  A
C350        F351   1.358       .  S
C355        C356   1.402       .  A
C355        C360   1.401       .  A
C355        F362   1.358       .  S
C356        C357   1.400       .  A
C357        C358   1.393       .  A
C357        F364   1.358       .  S
C358        C359   1.407       .  A
C358        F363   1.358       .  S
C359        C360   1.409       .  A
C360        F361   1.358       .  S
C365        C366   1.409       .  A
C365        C370   1.402       .  A
C365        F372   1.358       .  S
C366        C367   1.407       .  A
C367        C368   1.392       .  A
C367        F374   1.358       .  S
C368        C369   1.402       .  A
C368        F373   1.358       .  S
C369        C370   1.404       .  A
C370        F371   1.358       .  S
C375        C376   1.403       .  A
C375        C380   1.394       .  A
C375        F382   1.358       .  S
C377        F384   1.358       .  S
C378        C379   1.408       .  A
C379        C380   1.406       .  A
C380        F381   1.358       .  S
C385        C386   1.414       .  A
C385        C390   1.406       .  A
C385        F392   1.358       .  S
C386        C387   1.409       .  A
C387        C388   1.400       .  A
C387        F394   1.358       .  S
C388        C389   1.412       .  A
C388        F393   1.358       .  S
C389        C390   1.408       .  A
C390        F391   1.357       .  S
C395        C396   1.407       .  A
C395        C400   1.405       .  A
C395        F402   1.358   1_545  S
C396        C397   1.411       .  A
C397        C398   1.404       .  A
C397        F404   1.358       .  S
C398        C399   1.411       .  A
C398        F403   1.358       .  S
C399        C400   1.417       .  A
C400        F401   1.358       .  S
C405        N406   1.358       .  A
C405        N410   1.352       .  A
C405        C780   1.471       .  S
N406        C407   1.362       .  A
C407        N408   1.370       .  A
C407        C803   1.504       .  S
N408        C409   1.367       .  A
C409        N410   1.355       .  A
C409        C793   1.494       .  S
C411        N412   1.357       .  A
C411        N416   1.356       .  A
C411        C551   1.468       .  S
N412        C413   1.360       .  A
C413        N414   1.356       .  A
C413        C558   1.461       .  S
N414        C415   1.356       .  A
C415        N416   1.357       .  A
C415        C568   1.474       .  S
C417        N418   1.361       .  A
C417        N422   1.362       .  A
C417        C541   1.498       .  S
N418        C419   1.358       .  A
C419        N420   1.360       .  A
C419        C518   1.473       .  S
N420        C421   1.359       .  A
C421        N422   1.361       .  A
C421        C528   1.482       .  S
C423        N424   1.361       .  A
C423        N428   1.355       .  A
C423        C511   1.469       .  S
N424        C425   1.358       .  A
C425        N426   1.354       .  A
C425        C501   1.475       .  S
N426        C427   1.353       .  A
C427        N428   1.354       .  A
C427        C488   1.470       .  S
O429        C437   1.263       .  A
O430        C438   1.275       .  A
O430       Co450   2.004       .  S
O431        C439   1.258       .  A
O431       Co451   1.948       .  S
O432        C642   1.263       .  A
O432       Co452   1.885       .  S
O433        C439   1.277       .  A
O433      Co1258   2.047   1_455  S
O434       C1450   1.296   1_455  A
O434       Co449   2.107       .  S
O435        C438   1.272       .  A
O436        C437   1.251       .  A
O436       Co451   1.969       .  S
C437        C598   1.494       .  S
C438        C581   1.474       .  S
C439        C521   1.487       .  S
C440        C484   1.462       .  S
C440        O634   1.263   1_554  A
C440       O1444   1.296   1_554  A
O441        C454   1.268       .  A
O441      Co1257   1.909       .  S
O442       Co450   1.962       .  S
O443        C456   1.282       .  A
O444        C457   1.261       .  A
O444       Co452   1.992       .  S
O445        C457   1.264       .  A
O446        C456   1.269       .  A
O446       Co449   1.967       .  S
O447        C454   1.294       .  A
O447       Co452   2.098       .  S
O448        C859   1.271       .  A
O448       Co451   2.032       .  S
Co449      O1249   1.909       .  S
Co449      O1261   2.027       .  S
Co450      O1241   2.047       .  S
Co451       O857   2.026       .  S
Co452       O453   2.001       .  S
O453      Co1257   2.027       .  S
O453       Co855   2.026   1_565  S
C454        C588   1.496       .  S
C455        C469   1.463   1_565  S
C455        O852   1.271   1_565  A
C456        C538   1.495       .  S
C457        C531   1.492       .  S
O458        C466   1.295       .  A
O459        C467   1.276       .  A
O459       Co479   2.018       .  S
O460        C468   1.266       .  A
O460       Co480   1.952       .  S
O461        C469   1.258       .  A
O461       Co481   1.987       .  S
O462        C468   1.276   1_655  A
O462      Co1287   2.016       .  S
O463       C1277   1.257   1_565  A
O463       Co478   2.004       .  S
O464        C467   1.267       .  A
O465        C466   1.265       .  A
O465       Co480   1.888       .  S
C466        C571   1.465       .  S
C467        C548   1.482       .  S
C468        C491   1.477       .  S
C469       O1271   1.257   1_545  A
O470        C483   1.263       .  A
O470      Co1286   1.950       .  S
O471       Co479   1.964       .  S
O472        C485   1.287       .  A
O473        C486   1.271       .  A
O473       Co481   2.026   1_565  S
O474        C486   1.256       .  A
O475        C485   1.262       .  A
O475       Co478   1.890       .  S
O476        C483   1.281       .  A
O476       Co481   2.042   1_565  S
O477        C888   1.262   1_455  A
O477       Co480   2.012       .  S
Co478      O1278   1.950   1_455  S
Co478      O1290   1.992   1_465  S
Co479      O1270   2.016       .  S
Co480       O886   2.007   1_455  S
Co481       O482   2.037       .  S
O482      Co1286   1.992   1_545  S
O482       Co884   2.007       .  S
C483        C561   1.471       .  S
C484        O881   1.262   1_565  A
C485        C508   1.460       .  S
C486        C498   1.473       .  S
C487        C488   1.404       .  A
C487        C492   1.394       .  A
C487        F494   1.358       .  S
C488        C489   1.406       .  A
C489        C490   1.391       .  A
C489        F496   1.358       .  S
C490        C491   1.409       .  A
C490        F495   1.358       .  S
C491        C492   1.411       .  A
C492        F493   1.358   1_455  S
C497        C498   1.407       .  A
C497        C502   1.402       .  A
C497        F504   1.358       .  S
C498        C499   1.405       .  A
C499        C500   1.391       .  A
C499        F506   1.357       .  S
C500        C501   1.405       .  A
C500        F505   1.358       .  S
C501        C502   1.409       .  A
C502        F503   1.358       .  S
C507        C508   1.401       .  A
C507        C512   1.393       .  A
C507        F514   1.359   1_455  S
C508        C509   1.403       .  A
C509        C510   1.395       .  A
C509        F516   1.358       .  S
C510        C511   1.405       .  A
C510        F515   1.358       .  S
C511        C512   1.409       .  A
C512        F513   1.358       .  S
C517        C518   1.405       .  A
C517        C522   1.406       .  A
C517        F524   1.357       .  S
C518        C519   1.401       .  A
C519        C520   1.395       .  A
C519        F526   1.359       .  S
C520        C521   1.411       .  A
C520        F525   1.359       .  S
C521        C522   1.411       .  A
C522        F523   1.357       .  S
C527        C528   1.408       .  A
C527        C532   1.408       .  A
C527        F534   1.357       .  S
C528        C529   1.402       .  A
C529        C530   1.397       .  A
C529        F536   1.358       .  S
C530        C531   1.413       .  A
C530        F535   1.358       .  S
C531        C532   1.410       .  A
C532        F533   1.357       .  S
C537        C538   1.411       .  A
C537        C542   1.403       .  A
C537        F544   1.358       .  S
C538        C539   1.411       .  A
C539        C540   1.400       .  A
C539        F546   1.358       .  S
C540        C541   1.412       .  A
C540        F545   1.358       .  S
C541        C542   1.412       .  A
C542        F543   1.358       .  S
C547        C548   1.410       .  A
C547        C552   1.399       .  A
C547        F554   1.357       .  S
C548        C549   1.409       .  A
C549        C550   1.400       .  A
C549        F556   1.358       .  S
C550        C551   1.403       .  A
C550        F555   1.358       .  S
C551        C552   1.401       .  A
C552        F553   1.358       .  S
C557        C558   1.402       .  A
C557        C562   1.401       .  A
C557        F564   1.358       .  S
C558        C559   1.400       .  A
C559        C560   1.393       .  A
C559        F566   1.358       .  S
C560        C561   1.407       .  A
C560        F565   1.358       .  S
C561        C562   1.409       .  A
C562        F563   1.358       .  S
C567        C568   1.409       .  A
C567        C572   1.402       .  A
C567        F574   1.358       .  S
C568        C569   1.407       .  A
C569        C570   1.392       .  A
C569        F576   1.358       .  S
C570        C571   1.402       .  A
C570        F575   1.358       .  S
C571        C572   1.404       .  A
C572        F573   1.358       .  S
C577        C578   1.403       .  A
C577        C582   1.394       .  A
C577        F584   1.358       .  S
C578        C607   1.471       .  S
C578        C781   1.405       .  A
C579        C780   1.405       .  A
C579        C782   1.404       .  A
C579        F586   1.358   1_556  S
C580        C781   1.404       .  A
C580        C581   1.408       .  A
C580        F787   1.358       .  S
C581        C582   1.406       .  A
C582        F583   1.358       .  S
F585        C782   1.358   1_554  S
C587        C588   1.414       .  A
C587        C592   1.406       .  A
C587        F594   1.358       .  S
C588        C589   1.409       .  A
C589        C590   1.399       .  A
C589        F596   1.358       .  S
C590        C591   1.412       .  A
C590        F595   1.358       .  S
C591        C611   1.494       .  S
C591        C592   1.408       .  A
C592        F593   1.357       .  S
C597        C598   1.407       .  A
C597        C602   1.405       .  A
C597        F604   1.358       .  S
C598        C599   1.411       .  A
C599        C600   1.404       .  A
C599        F606   1.358       .  S
C600        C601   1.411       .  A
C600        F605   1.358       .  S
C601        C609   1.504       .  S
C601        C602   1.417       .  A
C602        F603   1.358       .  S
C607        N608   1.358       .  A
C607        N612   1.352       .  A
N608        C609   1.362       .  A
C609        N610   1.370       .  A
N610        C611   1.367       .  A
C611        N612   1.355       .  A
C613        N614   1.357       .  A
C613        N618   1.356       .  A
C613        C753   1.468       .  S
N614        C615   1.360       .  A
C615        N616   1.356       .  A
C615        C760   1.461       .  S
N616        C617   1.356       .  A
C617        N618   1.357       .  A
C617        C770   1.474       .  S
C619        N620   1.361       .  A
C619        N624   1.362       .  A
C619        C743   1.498       .  S
N620        C621   1.358       .  A
C621        N622   1.360       .  A
C621        C720   1.473       .  S
N622        C623   1.359       .  A
C623        N624   1.361       .  A
C623        C730   1.482       .  S
C625        N626   1.361       .  A
C625        N630   1.355       .  A
C625        C713   1.469       .  S
N626        C627   1.358       .  A
C627        N628   1.353       .  A
C627        C703   1.475       .  S
N628        C629   1.352       .  A
C629        N630   1.354       .  A
C629        C690   1.470       .  S
O631        C639   1.263       .  A
O632        C640   1.275       .  A
O632       Co652   2.004       .  S
O633        C641   1.258       .  A
O633       Co653   1.948       .  S
O634       Co654   1.885       .  S
O635        C641   1.277       .  A
O635      Co1460   2.047   1_455  S
O636       C1248   1.296   1_456  A
O636       Co651   2.107       .  S
O637        C640   1.272       .  A
O638        C639   1.251       .  A
O638       Co653   1.969       .  S
C639        C800   1.494       .  S
C640        C783   1.474       .  S
C641        C723   1.487       .  S
C642        C686   1.462       .  S
C642       O1242   1.296       .  A
O643        C656   1.268       .  A
O643      Co1459   1.909       .  S
O644       Co652   1.962       .  S
O645        C658   1.282       .  A
O646        C659   1.261       .  A
O646       Co654   1.992       .  S
O647        C659   1.264       .  A
O648        C658   1.269       .  A
O648       Co651   1.967       .  S
O649        C656   1.294       .  A
O649       Co654   2.098       .  S
O650       C1061   1.271       .  A
O650       Co653   2.032       .  S
Co651      O1451   1.909       .  S
Co651      O1463   2.027       .  S
Co652      O1443   2.047       .  S
Co653      O1059   2.026       .  S
Co654       O655   2.002       .  S
O655      Co1459   2.027       .  S
O655      Co1057   2.026   1_565  S
C656        C790   1.496       .  S
C657        C671   1.463   1_565  S
C657       O1054   1.271   1_565  A
C658        C740   1.495       .  S
C659        C733   1.492       .  S
O660        C668   1.295       .  A
O661        C669   1.276       .  A
O661       Co681   2.018       .  S
O662        C670   1.266       .  A
O662       Co682   1.952       .  S
O663        C671   1.258       .  A
O663       Co683   1.987       .  S
O664        C670   1.276   1_655  A
O664      Co1489   2.015       .  S
O665       C1479   1.257   1_565  A
O665       Co680   2.005       .  S
O666        C669   1.267       .  A
O667        C668   1.265       .  A
O667       Co682   1.887       .  S
C668        C773   1.465       .  S
C669        C750   1.481       .  S
C670        C693   1.477       .  S
C671       O1473   1.257   1_545  A
O672        C685   1.263       .  A
O672      Co1488   1.950       .  S
O673       Co681   1.963       .  S
O674        C687   1.287       .  A
O675        C688   1.271       .  A
O675       Co683   2.025   1_565  S
O676        C688   1.256       .  A
O677        C687   1.262       .  A
O677       Co680   1.890       .  S
O678        C685   1.281       .  A
O678       Co683   2.041   1_565  S
O679       C1090   1.262   1_455  A
O679       Co682   2.012       .  S
Co680      O1480   1.950   1_455  S
Co680      O1492   1.992   1_465  S
Co681      O1472   2.015       .  S
Co682      O1088   2.007   1_455  S
Co683       O684   2.037       .  S
O684      Co1488   1.992   1_545  S
O684      Co1086   2.007       .  S
C685        C763   1.471       .  S
C686       O1083   1.262   1_565  A
C687        C710   1.460       .  S
C688        C700   1.473       .  S
C689        C690   1.404       .  A
C689        C694   1.394       .  A
C689        F696   1.358       .  S
C690        C691   1.406       .  A
C691        C692   1.391       .  A
C691        F698   1.358       .  S
C692        C693   1.409       .  A
C692        F697   1.358       .  S
C693        C694   1.411       .  A
C694        F695   1.358   1_455  S
C699        C700   1.407       .  A
C699        C704   1.402       .  A
C699        F706   1.358       .  S
C700        C701   1.405       .  A
C701        C702   1.391       .  A
C701        F708   1.357       .  S
C702        C703   1.405       .  A
C702        F707   1.358       .  S
C703        C704   1.409       .  A
C704        F705   1.358       .  S
C709        C710   1.401       .  A
C709        C714   1.393       .  A
C709        F716   1.359   1_455  S
C710        C711   1.403       .  A
C711        C712   1.395       .  A
C711        F718   1.358       .  S
C712        C713   1.405       .  A
C712        F717   1.358       .  S
C713        C714   1.409       .  A
C714        F715   1.358       .  S
C719        C720   1.405       .  A
C719        C724   1.406       .  A
C719        F726   1.357       .  S
C720        C721   1.400       .  A
C721        C722   1.395       .  A
C721        F728   1.359       .  S
C722        C723   1.411       .  A
C722        F727   1.359       .  S
C723        C724   1.411       .  A
C724        F725   1.357       .  S
C729        C730   1.408       .  A
C729        C734   1.408       .  A
C729        F736   1.357       .  S
C730        C731   1.402       .  A
C731        C732   1.397       .  A
C731        F738   1.358       .  S
C732        C733   1.413       .  A
C732        F737   1.358       .  S
C733        C734   1.410       .  A
C734        F735   1.357       .  S
C739        C740   1.411       .  A
C739        C744   1.403       .  A
C739        F746   1.358       .  S
C740        C741   1.411       .  A
C741        C742   1.400       .  A
C741        F748   1.358       .  S
C742        C743   1.412       .  A
C742        F747   1.358       .  S
C743        C744   1.412       .  A
C744        F745   1.358       .  S
C749        C750   1.410       .  A
C749        C754   1.399       .  A
C749        F756   1.357       .  S
C750        C751   1.409       .  A
C751        C752   1.400       .  A
C751        F758   1.358       .  S
C752        C753   1.403       .  A
C752        F757   1.358       .  S
C753        C754   1.401       .  A
C754        F755   1.358       .  S
C759        C760   1.402       .  A
C759        C764   1.401       .  A
C759        F766   1.358       .  S
C760        C761   1.400       .  A
C761        C762   1.393       .  A
C761        F768   1.358       .  S
C762        C763   1.407       .  A
C762        F767   1.358       .  S
C763        C764   1.409       .  A
C764        F765   1.358       .  S
C769        C770   1.409       .  A
C769        C774   1.402       .  A
C769        F776   1.358       .  S
C770        C771   1.407       .  A
C771        C772   1.392       .  A
C771        F778   1.358       .  S
C772        C773   1.402       .  A
C772        F777   1.358       .  S
C773        C774   1.404       .  A
C774        F775   1.358       .  S
C779        C780   1.403       .  A
C779        C784   1.394       .  A
C779        F786   1.358       .  S
C781        F788   1.358       .  S
C782        C783   1.408       .  A
C783        C784   1.406       .  A
C784        F785   1.358       .  S
C789        C790   1.414       .  A
C789        C794   1.406       .  A
C789        F796   1.358       .  S
C790        C791   1.409       .  A
C791        C792   1.400       .  A
C791        F798   1.358       .  S
C792        C793   1.412       .  A
C792        F797   1.358       .  S
C793        C794   1.408       .  A
C794        F795   1.357       .  S
C799        C800   1.407       .  A
C799        C804   1.405       .  A
C799        F806   1.358       .  S
C800        C801   1.411       .  A
C801        C802   1.404       .  A
C801        F808   1.358       .  S
C802        C803   1.411       .  A
C802        F807   1.358       .  S
C803        C804   1.417       .  A
C804        F805   1.358       .  S
C809        N810   1.358       .  A
C809        N814   1.352       .  A
C809       C1184   1.471       .  S
N810        C811   1.362       .  A
C811        N812   1.370       .  A
C811       C1207   1.504       .  S
N812        C813   1.367       .  A
C813        N814   1.355       .  A
C813       C1197   1.494       .  S
C815        N816   1.357       .  A
C815        N820   1.356       .  A
C815        C955   1.467       .  S
N816        C817   1.360       .  A
C817        N818   1.356       .  A
C817        C962   1.461       .  S
N818        C819   1.356       .  A
C819        N820   1.357       .  A
C819        C972   1.474       .  S
C821        N822   1.361       .  A
C821        N826   1.362       .  A
C821        C945   1.498       .  S
N822        C823   1.358       .  A
C823        N824   1.360       .  A
C823        C922   1.473       .  S
N824        C825   1.359       .  A
C825        N826   1.361       .  A
C825        C932   1.482       .  S
C827        N828   1.361       .  A
C827        N832   1.355       .  A
C827        C915   1.469       .  S
N828        C829   1.358       .  A
C829        N830   1.353       .  A
C829        C905   1.475       .  S
N830        C831   1.352       .  A
C831        N832   1.354       .  A
C831        C892   1.470       .  S
O833        C841   1.263   1_565  A
O833      Co1257   2.031       .  S
O834        C842   1.275       .  A
O834       Co854   2.004   1_545  S
O835        C843   1.258       .  A
O835       Co855   1.948       .  S
O836       C1046   1.263       .  A
O836       Co856   1.885       .  S
O837        C843   1.277       .  A
O838       Co853   2.107       .  S
O839        C842   1.272       .  A
O839      Co1260   1.984   1_545  S
O840        C841   1.251       .  A
O840       Co855   1.969       .  S
C841       C1002   1.494       .  S
C842        C985   1.474       .  S
C843        C925   1.486       .  S
C844        C888   1.462       .  S
C844       O1038   1.263   1_554  A
O845        C858   1.268   1_455  A
O846       C1263   1.259   1_655  A
O846       Co854   1.962       .  S
O847        C860   1.282       .  A
O847      Co1259   2.040       .  S
O848        C861   1.261       .  A
O848       Co856   1.992       .  S
O849        C861   1.264       .  A
O849      Co1258   1.997       .  S
O850        C860   1.269       .  A
O850       Co853   1.967       .  S
O851        C858   1.294       .  A
O851       Co856   2.098       .  S
O852       Co855   2.031       .  S
Co853      O1237   2.031       .  S
Co854      O1253   1.997       .  S
Co854      O1261   2.039   1_655  S
Co855      O1251   2.040   1_545  S
Co856      O1243   1.985       .  S
Co856       O857   2.001   1_655  S
O857      Co1258   2.039   1_455  S
C858        C992   1.496       .  S
C859        C873   1.463       .  S
C859       O1250   1.259   1_455  A
C860        C942   1.495       .  S
C861        C935   1.492       .  S
O862        C870   1.295       .  A
O862      Co1286   2.098   1_545  S
O863        C871   1.276       .  A
O863       Co883   2.018       .  S
O864        C872   1.266       .  A
O864       Co884   1.952       .  S
O865        C873   1.258       .  A
O865       Co885   1.987   1_455  S
O866        C872   1.276       .  A
O867       Co882   2.005       .  S
O868        C871   1.267       .  A
O868      Co1289   1.969       .  S
O869        C870   1.265       .  A
O869       Co884   1.887       .  S
C870        C975   1.465       .  S
C871        C952   1.482       .  S
C872        C895   1.477       .  S
O874        C887   1.263       .  A
O875       C1292   1.255       .  A
O875       Co883   1.964   1_565  S
O876        C889   1.287       .  A
O876      Co1288   2.085       .  S
O877        C890   1.271       .  A
O877       Co885   2.026       .  S
O878        C890   1.256       .  A
O878      Co1287   1.949       .  S
O879        C889   1.262       .  A
O879       Co882   1.890       .  S
O880        C887   1.281       .  A
O880       Co885   2.042       .  S
O881       Co884   2.012       .  S
Co882      O1266   2.098       .  S
Co883      O1282   1.949   1_545  S
Co883      O1290   2.005       .  S
Co884      O1280   2.085   1_545  S
Co885      O1272   1.969       .  S
Co885       O886   2.037       .  S
O886      Co1287   2.005       .  S
C887        C965   1.471       .  S
C888       O1279   1.255       .  A
C889        C912   1.460       .  S
C890        C902   1.473       .  S
C891        C892   1.404       .  A
C891        C896   1.394       .  A
C891        F898   1.358       .  S
C892        C893   1.406       .  A
C893        C894   1.391       .  A
C893        F900   1.358       .  S
C894        C895   1.409       .  A
C894        F899   1.358       .  S
C895        C896   1.411       .  A
C896        F897   1.358       .  S
C901        C902   1.407       .  A
C901        C906   1.402       .  A
C901        F908   1.358       .  S
C902        C903   1.405       .  A
C903        C904   1.391       .  A
C903        F910   1.357       .  S
C904        C905   1.405       .  A
C904        F909   1.358       .  S
C905        C906   1.409       .  A
C906        F907   1.358       .  S
C911        C912   1.401       .  A
C911        C916   1.393       .  A
C911        F918   1.359       .  S
C912        C913   1.403       .  A
C913        C914   1.395       .  A
C913        F920   1.358       .  S
C914        C915   1.405       .  A
C914        F919   1.358       .  S
C915        C916   1.409       .  A
C916        F917   1.358       .  S
C921        C922   1.405       .  A
C921        C926   1.406       .  A
C921        F928   1.357       .  S
C922        C923   1.401       .  A
C923        C924   1.395       .  A
C923        F930   1.359       .  S
C924        C925   1.411       .  A
C924        F929   1.359       .  S
C925        C926   1.410       .  A
C926        F927   1.357       .  S
C931        C932   1.408       .  A
C931        C936   1.408       .  A
C931        F938   1.357       .  S
C932        C933   1.402       .  A
C933        C934   1.397       .  A
C933        F940   1.358       .  S
C934        C935   1.413       .  A
C934        F939   1.358       .  S
C935        C936   1.410       .  A
C936        F937   1.357       .  S
C941        C942   1.411       .  A
C941        C946   1.403       .  A
C941        F948   1.358       .  S
C942        C943   1.411       .  A
C943        C944   1.400       .  A
C943        F950   1.358       .  S
C944        C945   1.412       .  A
C944        F949   1.358       .  S
C945        C946   1.412       .  A
C946        F947   1.358       .  S
C951        C952   1.410       .  A
C951        C956   1.399       .  A
C951        F958   1.357       .  S
C952        C953   1.409       .  A
C953        C954   1.400       .  A
C953        F960   1.358       .  S
C954        C955   1.403       .  A
C954        F959   1.358       .  S
C955        C956   1.401       .  A
C956        F957   1.358       .  S
C961        C962   1.402       .  A
C961        C966   1.401       .  A
C961        F968   1.358       .  S
C962        C963   1.400       .  A
C963        C964   1.393       .  A
C963        F970   1.358       .  S
C964        C965   1.407       .  A
C964        F969   1.358       .  S
C965        C966   1.409       .  A
C966        F967   1.358       .  S
C971        C972   1.409       .  A
C971        C976   1.402       .  A
C971        F978   1.358       .  S
C972        C973   1.407       .  A
C973        C974   1.392       .  A
C973        F980   1.358       .  S
C974        C975   1.402       .  A
C974        F979   1.358       .  S
C975        C976   1.404       .  A
C976        F977   1.358       .  S
C981        C982   1.403       .  A
C981        C986   1.394       .  A
C981        F988   1.358       .  S
C982       C1011   1.471       .  S
C982       C1185   1.405       .  A
C983       C1184   1.405       .  A
C983       C1186   1.404       .  A
C983        F990   1.358   1_556  S
C984       C1185   1.404       .  A
C984        C985   1.408       .  A
C984       F1191   1.358       .  S
C985        C986   1.406       .  A
C986        F987   1.358       .  S
F989       C1186   1.358   1_554  S
C991        C992   1.414       .  A
C991        C996   1.406       .  A
C991        F998   1.358       .  S
C992        C993   1.409       .  A
C993        C994   1.400       .  A
C993       F1000   1.358   1_655  S
C994        C995   1.412       .  A
C994        F999   1.358       .  S
C995       C1015   1.494       .  S
C995        C996   1.408       .  A
C996        F997   1.357       .  S
C1001      C1002   1.407       .  A
C1001      C1006   1.405       .  A
C1001      F1008   1.358   1_545  S
C1002      C1003   1.411       .  A
C1003      C1004   1.404       .  A
C1003      F1010   1.358       .  S
C1004      C1005   1.411       .  A
C1004      F1009   1.358       .  S
C1005      C1013   1.504       .  S
C1005      C1006   1.417       .  A
C1006      F1007   1.358       .  S
C1011      N1012   1.358       .  A
C1011      N1016   1.352       .  A
N1012      C1013   1.362       .  A
C1013      N1014   1.370       .  A
N1014      C1015   1.367       .  A
C1015      N1016   1.355       .  A
C1017      N1018   1.357       .  A
C1017      N1022   1.356       .  A
C1017      C1157   1.468       .  S
N1018      C1019   1.360       .  A
C1019      N1020   1.356       .  A
C1019      C1164   1.461       .  S
N1020      C1021   1.356       .  A
C1021      N1022   1.357       .  A
C1021      C1174   1.474       .  S
C1023      N1024   1.361       .  A
C1023      N1028   1.362       .  A
C1023      C1147   1.498       .  S
N1024      C1025   1.358       .  A
C1025      N1026   1.360       .  A
C1025      C1124   1.473       .  S
N1026      C1027   1.359       .  A
C1027      N1028   1.361       .  A
C1027      C1134   1.482       .  S
C1029      N1030   1.361       .  A
C1029      N1034   1.355       .  A
C1029      C1117   1.469       .  S
N1030      C1031   1.358       .  A
C1031      N1032   1.353       .  A
C1031      C1107   1.475       .  S
N1032      C1033   1.352       .  A
C1033      N1034   1.354       .  A
C1033      C1094   1.470       .  S
O1035      C1043   1.263   1_565  A
O1035     Co1459   2.031       .  S
O1036      C1044   1.275       .  A
O1036     Co1056   2.004   1_545  S
O1037      C1045   1.258       .  A
O1037     Co1057   1.948       .  S
O1038     Co1058   1.885       .  S
O1039      C1045   1.277       .  A
O1040     Co1055   2.107       .  S
O1041      C1044   1.272       .  A
O1041     Co1462   1.984   1_545  S
O1042      C1043   1.251       .  A
O1042     Co1057   1.969       .  S
C1043      C1204   1.494       .  S
C1044      C1187   1.474       .  S
C1045      C1127   1.486       .  S
C1046      C1090   1.462       .  S
O1047      C1060   1.268   1_455  A
O1048      C1465   1.259   1_655  A
O1048     Co1056   1.962       .  S
O1049      C1062   1.282       .  A
O1049     Co1461   2.040       .  S
O1050      C1063   1.261       .  A
O1050     Co1058   1.991       .  S
O1051      C1063   1.264       .  A
O1051     Co1460   1.997       .  S
O1052      C1062   1.269       .  A
O1052     Co1055   1.967       .  S
O1053      C1060   1.294       .  A
O1053     Co1058   2.098       .  S
O1054     Co1057   2.032       .  S
Co1055     O1439   2.031       .  S
Co1056     O1455   1.997       .  S
Co1056     O1463   2.039   1_655  S
Co1057     O1453   2.040   1_545  S
Co1058     O1445   1.985       .  S
Co1058     O1059   2.002   1_655  S
O1059     Co1460   2.039   1_455  S
C1060      C1194   1.496       .  S
C1061      C1075   1.463       .  S
C1061      O1452   1.259   1_455  A
C1062      C1144   1.495       .  S
C1063      C1137   1.492       .  S
O1064      C1072   1.295       .  A
O1064     Co1488   2.098   1_545  S
O1065      C1073   1.276       .  A
O1065     Co1085   2.018       .  S
O1066      C1074   1.266       .  A
O1066     Co1086   1.952       .  S
O1067      C1075   1.258       .  A
O1067     Co1087   1.987   1_455  S
O1068      C1074   1.276       .  A
O1069     Co1084   2.005       .  S
O1070      C1073   1.267       .  A
O1070     Co1491   1.969       .  S
O1071      C1072   1.265       .  A
O1071     Co1086   1.887       .  S
C1072      C1177   1.465       .  S
C1073      C1154   1.482       .  S
C1074      C1097   1.477       .  S
O1076      C1089   1.263       .  A
O1077      C1494   1.255       .  A
O1077     Co1085   1.964   1_565  S
O1078      C1091   1.287       .  A
O1078     Co1490   2.085       .  S
O1079      C1092   1.271       .  A
O1079     Co1087   2.025       .  S
O1080      C1092   1.256       .  A
O1080     Co1489   1.949       .  S
O1081      C1091   1.262       .  A
O1081     Co1084   1.890       .  S
O1082      C1089   1.281       .  A
O1082     Co1087   2.041       .  S
O1083     Co1086   2.012       .  S
Co1084     O1468   2.098       .  S
Co1085     O1484   1.949   1_545  S
Co1085     O1492   2.005       .  S
Co1086     O1482   2.085   1_545  S
Co1087     O1474   1.969       .  S
Co1087     O1088   2.037       .  S
O1088     Co1489   2.005       .  S
C1089      C1167   1.471       .  S
C1090      O1481   1.255       .  A
C1091      C1114   1.460       .  S
C1092      C1104   1.473       .  S
C1093      C1094   1.404       .  A
C1093      C1098   1.394       .  A
C1093      F1100   1.358       .  S
C1094      C1095   1.406       .  A
C1095      C1096   1.391       .  A
C1095      F1102   1.358       .  S
C1096      C1097   1.409       .  A
C1096      F1101   1.358       .  S
C1097      C1098   1.411       .  A
C1098      F1099   1.358       .  S
C1103      C1104   1.407       .  A
C1103      C1108   1.402       .  A
C1103      F1110   1.358       .  S
C1104      C1105   1.405       .  A
C1105      C1106   1.391       .  A
C1105      F1112   1.357       .  S
C1106      C1107   1.405       .  A
C1106      F1111   1.358       .  S
C1107      C1108   1.409       .  A
C1108      F1109   1.358       .  S
C1113      C1114   1.401       .  A
C1113      C1118   1.393       .  A
C1113      F1120   1.359       .  S
C1114      C1115   1.403       .  A
C1115      C1116   1.395       .  A
C1115      F1122   1.358       .  S
C1116      C1117   1.405       .  A
C1116      F1121   1.358       .  S
C1117      C1118   1.409       .  A
C1118      F1119   1.358       .  S
C1123      C1124   1.405       .  A
C1123      C1128   1.406       .  A
C1123      F1130   1.357       .  S
C1124      C1125   1.400       .  A
C1125      C1126   1.395       .  A
C1125      F1132   1.359       .  S
C1126      C1127   1.411       .  A
C1126      F1131   1.359       .  S
C1127      C1128   1.410       .  A
C1128      F1129   1.357       .  S
C1133      C1134   1.408       .  A
C1133      C1138   1.408       .  A
C1133      F1140   1.357       .  S
C1134      C1135   1.402       .  A
C1135      C1136   1.397       .  A
C1135      F1142   1.358       .  S
C1136      C1137   1.413       .  A
C1136      F1141   1.358       .  S
C1137      C1138   1.410       .  A
C1138      F1139   1.357       .  S
C1143      C1144   1.411       .  A
C1143      C1148   1.403       .  A
C1143      F1150   1.358       .  S
C1144      C1145   1.411       .  A
C1145      C1146   1.400       .  A
C1145      F1152   1.358       .  S
C1146      C1147   1.412       .  A
C1146      F1151   1.358       .  S
C1147      C1148   1.412       .  A
C1148      F1149   1.358       .  S
C1153      C1154   1.410       .  A
C1153      C1158   1.399       .  A
C1153      F1160   1.357       .  S
C1154      C1155   1.409       .  A
C1155      C1156   1.400       .  A
C1155      F1162   1.358       .  S
C1156      C1157   1.403       .  A
C1156      F1161   1.358       .  S
C1157      C1158   1.401       .  A
C1158      F1159   1.358       .  S
C1163      C1164   1.402       .  A
C1163      C1168   1.401       .  A
C1163      F1170   1.358       .  S
C1164      C1165   1.400       .  A
C1165      C1166   1.393       .  A
C1165      F1172   1.358       .  S
C1166      C1167   1.407       .  A
C1166      F1171   1.358       .  S
C1167      C1168   1.409       .  A
C1168      F1169   1.358       .  S
C1173      C1174   1.409       .  A
C1173      C1178   1.402       .  A
C1173      F1180   1.358       .  S
C1174      C1175   1.407       .  A
C1175      C1176   1.392       .  A
C1175      F1182   1.358       .  S
C1176      C1177   1.402       .  A
C1176      F1181   1.358       .  S
C1177      C1178   1.404       .  A
C1178      F1179   1.358       .  S
C1183      C1184   1.403       .  A
C1183      C1188   1.394       .  A
C1183      F1190   1.358       .  S
C1185      F1192   1.358       .  S
C1186      C1187   1.408       .  A
C1187      C1188   1.406       .  A
C1188      F1189   1.358       .  S
C1193      C1194   1.414       .  A
C1193      C1198   1.406       .  A
C1193      F1200   1.358       .  S
C1194      C1195   1.409       .  A
C1195      C1196   1.400       .  A
C1195      F1202   1.358   1_655  S
C1196      C1197   1.412       .  A
C1196      F1201   1.358       .  S
C1197      C1198   1.408       .  A
C1198      F1199   1.357       .  S
C1203      C1204   1.407       .  A
C1203      C1208   1.405       .  A
C1203      F1210   1.358   1_545  S
C1204      C1205   1.411       .  A
C1205      C1206   1.404       .  A
C1205      F1212   1.358       .  S
C1206      C1207   1.411       .  A
C1206      F1211   1.358       .  S
C1207      C1208   1.417       .  A
C1208      F1209   1.358       .  S
C1213      N1214   1.358       .  A
C1213      N1218   1.352       .  A
C1213      C1588   1.471       .  S
N1214      C1215   1.363       .  A
C1215      N1216   1.370       .  A
C1215      C1611   1.504       .  S
N1216      C1217   1.367       .  A
C1217      N1218   1.355       .  A
C1217      C1601   1.494       .  S
C1219      N1220   1.357       .  A
C1219      N1224   1.356       .  A
C1219      C1359   1.467       .  S
N1220      C1221   1.360       .  A
C1221      N1222   1.356       .  A
C1221      C1366   1.462       .  S
N1222      C1223   1.356       .  A
C1223      N1224   1.357       .  A
C1223      C1376   1.474       .  S
C1225      N1226   1.361       .  A
C1225      N1230   1.362       .  A
C1225      C1349   1.498       .  S
N1226      C1227   1.358       .  A
C1227      N1228   1.360       .  A
C1227      C1326   1.473       .  S
N1228      C1229   1.359       .  A
C1229      N1230   1.361       .  A
C1229      C1336   1.482       .  S
C1231      N1232   1.361       .  A
C1231      N1236   1.355       .  A
C1231      C1319   1.469       .  S
N1232      C1233   1.358       .  A
C1233      N1234   1.353       .  A
C1233      C1309   1.475       .  S
N1234      C1235   1.352       .  A
C1235      N1236   1.354       .  A
C1235      C1296   1.470       .  S
O1237      C1245   1.263       .  A
O1238      C1246   1.275       .  A
O1238     Co1258   2.004       .  S
O1239      C1247   1.258       .  A
O1239     Co1259   1.948       .  S
O1240      C1450   1.263       .  A
O1240     Co1260   1.885       .  S
O1241      C1247   1.277       .  A
O1242     Co1257   2.107       .  S
O1243      C1246   1.272       .  A
O1244      C1245   1.251       .  A
O1244     Co1259   1.969       .  S
C1245      C1406   1.494       .  S
C1246      C1389   1.474       .  S
C1247      C1329   1.487       .  S
C1248      C1292   1.462       .  S
C1248      O1442   1.263   1_554  A
O1249      C1262   1.268   1_455  A
O1250     Co1258   1.962       .  S
O1251      C1264   1.282       .  A
O1252      C1265   1.261       .  A
O1252     Co1260   1.992       .  S
O1253      C1265   1.264       .  A
O1254      C1264   1.269       .  A
O1254     Co1257   1.967       .  S
O1255      C1262   1.294       .  A
O1255     Co1260   2.098       .  S
O1256     Co1259   2.032       .  S
Co1260     O1261   2.002   1_655  S
C1262      C1396   1.496       .  S
C1263      C1277   1.462   1_565  S
C1264      C1346   1.495       .  S
C1265      C1339   1.492       .  S
O1266      C1274   1.295       .  A
O1267      C1275   1.276       .  A
O1267     Co1287   2.018       .  S
O1268      C1276   1.266       .  A
O1268     Co1288   1.952       .  S
O1269      C1277   1.258       .  A
O1269     Co1289   1.987   1_455  S
O1270      C1276   1.276       .  A
O1271     Co1286   2.004       .  S
O1272      C1275   1.267       .  A
O1273      C1274   1.265       .  A
O1273     Co1288   1.887       .  S
C1274      C1379   1.465       .  S
C1275      C1356   1.482       .  S
C1276      C1299   1.477       .  S
O1278      C1291   1.263       .  A
O1279     Co1287   1.963       .  S
O1280      C1293   1.287       .  A
O1281      C1294   1.271       .  A
O1281     Co1289   2.026   1_565  S
O1282      C1294   1.256       .  A
O1283      C1293   1.262       .  A
O1283     Co1286   1.890       .  S
O1284      C1291   1.281       .  A
O1284     Co1289   2.042   1_565  S
O1285     Co1288   2.012       .  S
Co1289     O1290   2.037       .  S
C1291      C1369   1.471       .  S
C1293      C1316   1.460       .  S
C1294      C1306   1.473       .  S
C1295      C1296   1.404       .  A
C1295      C1300   1.394       .  A
C1295      F1302   1.358       .  S
C1296      C1297   1.406       .  A
C1297      C1298   1.391       .  A
C1297      F1304   1.358       .  S
C1298      C1299   1.409       .  A
C1298      F1303   1.358       .  S
C1299      C1300   1.411       .  A
C1300      F1301   1.358       .  S
C1305      C1306   1.407       .  A
C1305      C1310   1.402       .  A
C1305      F1312   1.358       .  S
C1306      C1307   1.405       .  A
C1307      C1308   1.391       .  A
C1307      F1314   1.357       .  S
C1308      C1309   1.405       .  A
C1308      F1313   1.358       .  S
C1309      C1310   1.409       .  A
C1310      F1311   1.358       .  S
C1315      C1316   1.401       .  A
C1315      C1320   1.393       .  A
C1315      F1322   1.359       .  S
C1316      C1317   1.403       .  A
C1317      C1318   1.395       .  A
C1317      F1324   1.358       .  S
C1318      C1319   1.405       .  A
C1318      F1323   1.358       .  S
C1319      C1320   1.409       .  A
C1320      F1321   1.358       .  S
C1325      C1326   1.405       .  A
C1325      C1330   1.407       .  A
C1325      F1332   1.357       .  S
C1326      C1327   1.400       .  A
C1327      C1328   1.395       .  A
C1327      F1334   1.359       .  S
C1328      C1329   1.411       .  A
C1328      F1333   1.359       .  S
C1329      C1330   1.411       .  A
C1330      F1331   1.357       .  S
C1335      C1336   1.408       .  A
C1335      C1340   1.408       .  A
C1335      F1342   1.357       .  S
C1336      C1337   1.403       .  A
C1337      C1338   1.397       .  A
C1337      F1344   1.358       .  S
C1338      C1339   1.413       .  A
C1338      F1343   1.358       .  S
C1339      C1340   1.410       .  A
C1340      F1341   1.357       .  S
C1345      C1346   1.411       .  A
C1345      C1350   1.403       .  A
C1345      F1352   1.358       .  S
C1346      C1347   1.411       .  A
C1347      C1348   1.400       .  A
C1347      F1354   1.358       .  S
C1348      C1349   1.412       .  A
C1348      F1353   1.358       .  S
C1349      C1350   1.412       .  A
C1350      F1351   1.358       .  S
C1355      C1356   1.410       .  A
C1355      C1360   1.399       .  A
C1355      F1362   1.357       .  S
C1356      C1357   1.409       .  A
C1357      C1358   1.400       .  A
C1357      F1364   1.358       .  S
C1358      C1359   1.403       .  A
C1358      F1363   1.358       .  S
C1359      C1360   1.401       .  A
C1360      F1361   1.358       .  S
C1365      C1366   1.402       .  A
C1365      C1370   1.401       .  A
C1365      F1372   1.358       .  S
C1366      C1367   1.400       .  A
C1367      C1368   1.393       .  A
C1367      F1374   1.358       .  S
C1368      C1369   1.407       .  A
C1368      F1373   1.358       .  S
C1369      C1370   1.409       .  A
C1370      F1371   1.358       .  S
C1375      C1376   1.409       .  A
C1375      C1380   1.402       .  A
C1375      F1382   1.358       .  S
C1376      C1377   1.407       .  A
C1377      C1378   1.392       .  A
C1377      F1384   1.358       .  S
C1378      C1379   1.402       .  A
C1378      F1383   1.358       .  S
C1379      C1380   1.404       .  A
C1380      F1381   1.358       .  S
C1385      C1386   1.403       .  A
C1385      C1390   1.394       .  A
C1385      F1392   1.358       .  S
C1386      C1415   1.471       .  S
C1386      C1589   1.405       .  A
C1387      C1588   1.405       .  A
C1387      C1590   1.404       .  A
C1387      F1394   1.358   1_556  S
C1388      C1589   1.404       .  A
C1388      C1389   1.408       .  A
C1388      F1595   1.358       .  S
C1389      C1390   1.406       .  A
C1390      F1391   1.358       .  S
F1393      C1590   1.358   1_554  S
C1395      C1396   1.414       .  A
C1395      C1400   1.406       .  A
C1395      F1402   1.358       .  S
C1396      C1397   1.409       .  A
C1397      C1398   1.399       .  A
C1397      F1404   1.358   1_655  S
C1398      C1399   1.412       .  A
C1398      F1403   1.358       .  S
C1399      C1419   1.494       .  S
C1399      C1400   1.408       .  A
C1400      F1401   1.357       .  S
C1405      C1406   1.407       .  A
C1405      C1410   1.405       .  A
C1405      F1412   1.358       .  S
C1406      C1407   1.411       .  A
C1407      C1408   1.404       .  A
C1407      F1414   1.358       .  S
C1408      C1409   1.411       .  A
C1408      F1413   1.358       .  S
C1409      C1417   1.504       .  S
C1409      C1410   1.417       .  A
C1410      F1411   1.358       .  S
C1415      N1416   1.358       .  A
C1415      N1420   1.352       .  A
N1416      C1417   1.363       .  A
C1417      N1418   1.370       .  A
N1418      C1419   1.367       .  A
C1419      N1420   1.355       .  A
C1421      N1422   1.357       .  A
C1421      N1426   1.356       .  A
C1421      C1561   1.467       .  S
N1422      C1423   1.360       .  A
C1423      N1424   1.356       .  A
C1423      C1568   1.461       .  S
N1424      C1425   1.356       .  A
C1425      N1426   1.357       .  A
C1425      C1578   1.474       .  S
C1427      N1428   1.361       .  A
C1427      N1432   1.362       .  A
C1427      C1551   1.498       .  S
N1428      C1429   1.358       .  A
C1429      N1430   1.360       .  A
C1429      C1528   1.473       .  S
N1430      C1431   1.359       .  A
C1431      N1432   1.361       .  A
C1431      C1538   1.482       .  S
C1433      N1434   1.361       .  A
C1433      N1438   1.355       .  A
C1433      C1521   1.469       .  S
N1434      C1435   1.358       .  A
C1435      N1436   1.353       .  A
C1435      C1511   1.475       .  S
N1436      C1437   1.352       .  A
C1437      N1438   1.354       .  A
C1437      C1498   1.470       .  S
O1439      C1447   1.263       .  A
O1440      C1448   1.275       .  A
O1440     Co1460   2.004       .  S
O1441      C1449   1.258       .  A
O1441     Co1461   1.948       .  S
O1442     Co1462   1.885       .  S
O1443      C1449   1.277       .  A
O1444     Co1459   2.107       .  S
O1445      C1448   1.272       .  A
O1446      C1447   1.251       .  A
O1446     Co1461   1.969       .  S
C1447      C1608   1.494       .  S
C1448      C1591   1.474       .  S
C1449      C1531   1.487       .  S
C1450      C1494   1.462       .  S
O1451      C1464   1.268   1_455  A
O1452     Co1460   1.962       .  S
O1453      C1466   1.282       .  A
O1454      C1467   1.261       .  A
O1454     Co1462   1.992       .  S
O1455      C1467   1.264       .  A
O1456      C1466   1.269       .  A
O1456     Co1459   1.967       .  S
O1457      C1464   1.294       .  A
O1457     Co1462   2.098       .  S
O1458     Co1461   2.032       .  S
Co1462     O1463   2.002   1_655  S
C1464      C1598   1.496       .  S
C1465      C1479   1.463   1_565  S
C1466      C1548   1.495       .  S
C1467      C1541   1.492       .  S
O1468      C1476   1.295       .  A
O1469      C1477   1.276       .  A
O1469     Co1489   2.018       .  S
O1470      C1478   1.266       .  A
O1470     Co1490   1.952       .  S
O1471      C1479   1.258       .  A
O1471     Co1491   1.987   1_455  S
O1472      C1478   1.276       .  A
O1473     Co1488   2.005       .  S
O1474      C1477   1.267       .  A
O1475      C1476   1.265       .  A
O1475     Co1490   1.887       .  S
C1476      C1581   1.465       .  S
C1477      C1558   1.482       .  S
C1478      C1501   1.477       .  S
O1480      C1493   1.263       .  A
O1481     Co1489   1.963       .  S
O1482      C1495   1.287       .  A
O1483      C1496   1.271       .  A
O1483     Co1491   2.025   1_565  S
O1484      C1496   1.256       .  A
O1485      C1495   1.262       .  A
O1485     Co1488   1.890       .  S
O1486      C1493   1.281       .  A
O1486     Co1491   2.041   1_565  S
O1487     Co1490   2.012       .  S
Co1491     O1492   2.037       .  S
C1493      C1571   1.471       .  S
C1495      C1518   1.460       .  S
C1496      C1508   1.473       .  S
C1497      C1498   1.404       .  A
C1497      C1502   1.394       .  A
C1497      F1504   1.358       .  S
C1498      C1499   1.406       .  A
C1499      C1500   1.391       .  A
C1499      F1506   1.358       .  S
C1500      C1501   1.409       .  A
C1500      F1505   1.358       .  S
C1501      C1502   1.411       .  A
C1502      F1503   1.358       .  S
C1507      C1508   1.407       .  A
C1507      C1512   1.402       .  A
C1507      F1514   1.358       .  S
C1508      C1509   1.405       .  A
C1509      C1510   1.391       .  A
C1509      F1516   1.357       .  S
C1510      C1511   1.405       .  A
C1510      F1515   1.358       .  S
C1511      C1512   1.409       .  A
C1512      F1513   1.358       .  S
C1517      C1518   1.401       .  A
C1517      C1522   1.393       .  A
C1517      F1524   1.359       .  S
C1518      C1519   1.403       .  A
C1519      C1520   1.395       .  A
C1519      F1526   1.358       .  S
C1520      C1521   1.405       .  A
C1520      F1525   1.358       .  S
C1521      C1522   1.409       .  A
C1522      F1523   1.358       .  S
C1527      C1528   1.405       .  A
C1527      C1532   1.407       .  A
C1527      F1534   1.357       .  S
C1528      C1529   1.400       .  A
C1529      C1530   1.395       .  A
C1529      F1536   1.359       .  S
C1530      C1531   1.412       .  A
C1530      F1535   1.359       .  S
C1531      C1532   1.411       .  A
C1532      F1533   1.357       .  S
C1537      C1538   1.408       .  A
C1537      C1542   1.408       .  A
C1537      F1544   1.357       .  S
C1538      C1539   1.403       .  A
C1539      C1540   1.397       .  A
C1539      F1546   1.358       .  S
C1540      C1541   1.413       .  A
C1540      F1545   1.358       .  S
C1541      C1542   1.410       .  A
C1542      F1543   1.357       .  S
C1547      C1548   1.411       .  A
C1547      C1552   1.403       .  A
C1547      F1554   1.358       .  S
C1548      C1549   1.411       .  A
C1549      C1550   1.400       .  A
C1549      F1556   1.358       .  S
C1550      C1551   1.412       .  A
C1550      F1555   1.358       .  S
C1551      C1552   1.412       .  A
C1552      F1553   1.358       .  S
C1557      C1558   1.410       .  A
C1557      C1562   1.399       .  A
C1557      F1564   1.357       .  S
C1558      C1559   1.409       .  A
C1559      C1560   1.400       .  A
C1559      F1566   1.358       .  S
C1560      C1561   1.403       .  A
C1560      F1565   1.358       .  S
C1561      C1562   1.401       .  A
C1562      F1563   1.358       .  S
C1567      C1568   1.402       .  A
C1567      C1572   1.401       .  A
C1567      F1574   1.358       .  S
C1568      C1569   1.400       .  A
C1569      C1570   1.393       .  A
C1569      F1576   1.358       .  S
C1570      C1571   1.407       .  A
C1570      F1575   1.358       .  S
C1571      C1572   1.409       .  A
C1572      F1573   1.358       .  S
C1577      C1578   1.409       .  A
C1577      C1582   1.402       .  A
C1577      F1584   1.358       .  S
C1578      C1579   1.407       .  A
C1579      C1580   1.392       .  A
C1579      F1586   1.358       .  S
C1580      C1581   1.402       .  A
C1580      F1585   1.358       .  S
C1581      C1582   1.404       .  A
C1582      F1583   1.358       .  S
C1587      C1588   1.403       .  A
C1587      C1592   1.394       .  A
C1587      F1594   1.358       .  S
C1589      F1596   1.358       .  S
C1590      C1591   1.408       .  A
C1591      C1592   1.406       .  A
C1592      F1593   1.358       .  S
C1597      C1598   1.414       .  A
C1597      C1602   1.406       .  A
C1597      F1604   1.358       .  S
C1598      C1599   1.409       .  A
C1599      C1600   1.400       .  A
C1599      F1606   1.358   1_655  S
C1600      C1601   1.412       .  A
C1600      F1605   1.358       .  S
C1601      C1602   1.408       .  A
C1602      F1603   1.357       .  S
C1607      C1608   1.407       .  A
C1607      C1612   1.405       .  A
C1607      F1614   1.358       .  S
C1608      C1609   1.411       .  A
C1609      C1610   1.404       .  A
C1609      F1616   1.358       .  S
C1610      C1611   1.411       .  A
C1610      F1615   1.358       .  S
C1611      C1612   1.417       .  A
C1612      F1613   1.358       .  S
