geometry optimzed in LAMMPS
_audit_creation_date              2020-11-30 
_audit_creation_method            'lammps2cif' 
_symmetry_space_group_name_H-M    'P1' 
_symmetry_Int_Tables_number       1 
_symmetry_cell_setting            triclinic 
loop_ 
_symmetry_equiv_pos_as_xyz 
  x,y,z 
_cell_length_a                    27.512774774144233 
_cell_length_b                    27.556994684274716 
_cell_length_c                    27.53012653663154 
_cell_angle_alpha                 84.62168237483029 
_cell_angle_beta                  84.36858283622465 
_cell_angle_gamma                 95.5349584909046 
loop_ 
_atom_site_label 
_atom_site_type_symbol 
_atom_site_fract_x 
_atom_site_fract_y 
_atom_site_fract_z 
_atom_site_charge 
C1          C  0.09600261  0.29637645  0.51234469     0.03460
C2          C  0.14704016  0.29786764  0.00550724    -0.12690
C3          C  0.16897595  0.25439012  0.00557611     0.00960
C4          C  0.14085063  0.20999613  0.00478938    -0.11220
C5          C  0.09008697  0.20653310  0.51452335     0.03450
C6          C  0.06694029  0.25014669  0.51798580    -0.10640
H7          H  0.16959205  0.33192875  0.00792401     0.09050
H8          H  0.15902821  0.17668945  0.00497865     0.06570
H9          H  0.02758798  0.24807297  0.52736080     0.06420
C10         C  0.40436305  0.17621186  0.11309753     0.03460
C11         C  0.35379038  0.17407624  0.11072899    -0.12690
C12         C  0.33103670  0.21695615  0.10769416     0.00960
C13         C  0.35696293  0.26170497  0.11195112    -0.11220
C14         C  0.40781108  0.26617710  0.11050492     0.03450
C15         C  0.43218574  0.22286890  0.11161856    -0.10640
H16         H  0.33311420  0.13979767  0.10526239     0.09050
H17         H  0.33789734  0.29442068  0.10928194     0.06570
H18         H  0.47191502  0.22551889  0.10840442     0.06420
C19         C  0.18858380  0.43505474  0.16015730     0.03460
C20         C  0.18689274  0.43414449  0.21113937    -0.12690
C21         C  0.23033552  0.43802675  0.23333109     0.00960
C22         C  0.27505614  0.43602936  0.20592670    -0.11220
C23         C  0.27880428  0.43947772  0.15506852     0.03450
C24         C  0.23509434  0.43877170  0.13149882    -0.10640
H25         H  0.15237756  0.43719301  0.23278660     0.09050
H26         H  0.30839423  0.43889467  0.22398488     0.06570
H27         H  0.23726365  0.44393507  0.09183451     0.06420
C28         C  0.31068954  0.03986977  0.46733047     0.03460
C29         C  0.31146870  0.04575422  0.41632244    -0.12690
C30         C  0.26743691  0.04313215  0.39501205     0.00960
C31         C  0.22317498  0.04336889  0.42385436    -0.11220
C32         C  0.22053498  0.03568746  0.47464369     0.03450
C33         C  0.26469807  0.03397131  0.99705023    -0.10640
H34         H  0.34564779  0.04433678  0.39345733     0.09050
H35         H  0.18933019  0.04171843  0.40656271     0.06570
H36         H  0.26327049  0.02550801  0.03641382     0.06420
C37         C  0.05170300  0.08282142  0.25452294     0.03460
C38         C  0.05661816  0.13371294  0.25450672    -0.12690
C39         C  0.05869918  0.15442404  0.29857588     0.00960
C40         C  0.06318959  0.12561632  0.34153904    -0.11220
C41         C  0.05277219  0.07508625  0.34413977     0.03530
C42         C  0.04786638  0.05287749  0.30011607    -0.10640
H43         H  0.05183512  0.15676165  0.22150585     0.09050
H44         H  0.06472608  0.14311196  0.37521559     0.06570
H45         H  0.03855579  0.01363988  0.30152343     0.06420
C46         C  0.45039000  0.39139751  0.37453905     0.03460
C47         C  0.45490655  0.34130681  0.37569350    -0.12690
C48         C  0.45788652  0.31926960  0.33236685     0.00960
C49         C  0.45085757  0.34485095  0.28844501    -0.11220
C50         C  0.45120253  0.39554087  0.28461486     0.03450
C51         C  0.45025837  0.41948058  0.32829174    -0.10640
H52         H  0.46213104  0.32077779  0.40936833     0.09050
H53         H  0.45309273  0.32588443  0.25557125     0.06570
H54         H  0.45267078  0.45909464  0.32613776     0.06420
O55         O  0.07991112  0.37850427  0.99032450    -0.86160
O56         O  0.44167264  0.46008986  0.22302554    -0.86330
O57         O  0.10700610  0.41144214  0.14177420    -0.87990
O58         O  0.47186811  0.32791253  0.12076658    -0.86750
O59         O  0.41121142  0.34785425  0.07310166    -0.86340
O60         O  0.14133161  0.49125089  0.12300973    -0.87710
O61         O  0.48891683  0.39905020  0.20308259    -0.86190
O62         O  0.05905220  0.34356768  0.06967847    -0.85780
Zr63       Zr  0.02314707  0.40506501  0.11593047     2.84310
O64         O  0.44460104  0.43240039  0.11863396    -1.07750
O65         O  0.07816175  0.46009402  0.06246941    -1.08480
C66         C  0.07619130  0.34215479  0.02453895     1.06950
C67         C  0.46135327  0.42052687  0.23389439     1.06890
C68         C  0.14307184  0.44601659  0.13899201     1.09870
C69         C  0.43255407  0.31702222  0.10060082     1.07650
H70         H  0.03826437  0.47962752  0.17426941     0.33210
O71         O  0.02625604  0.48301233  0.14251874    -1.28700
H72         H  0.49249197  0.37666365  0.02504135     0.32880
O73         O  0.49590575  0.40829386  0.03734715    -1.30380
O74         O  0.42320337  0.09534207  0.13799272    -0.86150
O75         O  0.05979599  0.01118223  0.40631082    -0.87650
O76         O  0.07404439  0.06650329  0.17221410    -0.86230
O77         O  0.34052875  0.43051528  0.09043239    -0.86280
O78         O  0.42530590  0.41065286  0.45544678    -0.85990
O79         O  0.15852223  0.04413433  0.03894195    -0.85800
O80         O  0.02655646  0.14433720  0.00609644    -0.86170
O81         O  0.39333097  0.06160351  0.48325288    -0.85630
O82         O  0.08638414  0.12650632  0.05569493    -0.86690
O83         O  0.35764758  0.48247287  0.00366396    -0.85850
O84         O  0.49421877  0.04708955  0.20687266    -0.86250
O85         O  0.14049363  0.49432276  0.47925865    -0.85970
O86         O  0.50582609  0.42849456  0.42249232    -0.85620
O87         O  0.36020859  0.47796024  0.15147543    -0.86030
O88         O  0.44269698  0.12863245  0.05788689    -0.86330
O89         O  0.51068680  0.07157949  0.42382625    -0.87670
Zr90       Zr  0.44789640  0.01111479  0.14553354     2.83100
Zr91       Zr  0.05292372  0.46165133  0.48421887     2.83500
Zr92       Zr  0.08050409  0.03901290  0.08898914     2.84090
Zr93       Zr  0.41818167  0.43539033  0.03976984     2.83360
Zr94       Zr  0.47632967  0.06684974  0.01111938     2.84220
O95         O  0.47426803  0.48867388  0.98563646    -1.08240
O96         O  0.50238488  0.06486597  0.09017264    -1.07740
C97         C  0.42642325  0.13097860  0.10302917     1.06920
C98         C  0.03949180  0.04998412  0.39424144     1.09540
C99         C  0.03952732  0.06351641  0.20844593     1.07090
C100        C  0.32947673  0.45045002  0.12989582     1.07450
C101        C  0.46047977  0.41318307  0.41991631     1.07040
C102        C  0.17038532  0.02312948  0.00034814     1.06590
C103        C  0.06511069  0.15625254  0.02699673     1.07010
C104        C  0.35665702  0.02761112  0.48672118     1.06530
H105        H  0.07812793  0.06322570  0.48719531     0.33210
O106        O  0.05533969  0.04088411  0.00966857    -1.29340
H107        H  0.39032205  0.02637944  0.07062385     0.33230
O108        O  0.42189136  0.01388233  0.06741757    -1.30720
C109        C  0.45937402  0.23000852  0.33671392     0.23930
C110        C  0.48449890  0.27679773  0.32853658    -0.24180
C111        C  0.03434277  0.28406212  0.30919264     0.18830
C112        C  0.05893059  0.24423104  0.29771440     0.23870
C113        C  0.03357461  0.19747139  0.30542149    -0.24130
C114        C  0.48380552  0.19029925  0.32504407     0.18770
F115        F  0.45923701  0.14459146  0.33317713    -0.14090
F116        F  0.41116153  0.22316485  0.35460323    -0.16450
F117        F  0.10700674  0.25103414  0.27934148    -0.16450
F118        F  0.05845188  0.32992756  0.30020867    -0.14090
C119        C  0.21806057  0.00852909  0.28029949     0.23930
C120        C  0.23308084  0.46123259  0.27867609    -0.24180
C121        C  0.26298965  0.44338824  0.31317657     0.18830
C122        C  0.27860401  0.47264639  0.34814187     0.23870
C123        C  0.26374381  0.02000783  0.34973997    -0.24130
C124        C  0.23339385  0.03771571  0.31557209     0.18770
F125        F  0.21743517  0.08271086  0.31751634    -0.14090
F126        F  0.19068920  0.02752451  0.24618973    -0.16450
F127        F  0.30618539  0.45358860  0.38203396    -0.16450
F128        F  0.27867697  0.39824128  0.31157489    -0.14090
C129        C  0.25347569  0.23168005  0.00549022     0.23930
C130        C  0.21336526  0.25057028  0.02932315    -0.24180
C131        C  0.20982869  0.25336279  0.08032289     0.18830
C132        C  0.24653074  0.23793488  0.10716866     0.23870
C133        C  0.28687824  0.21951072  0.08335696    -0.24130
C134        C  0.29044308  0.21649992  0.03238817     0.18770
F135        F  0.33091542  0.20130084  0.50849265    -0.14090
F136        F  0.25620127  0.22736784  0.45658443    -0.16450
F137        F  0.24360549  0.24214533  0.15610138    -0.16450
F138        F  0.16952681  0.26873031  0.10439097    -0.14090
C139        C  0.09600268  0.29637651  0.01234472     0.03460
C140        C  0.14704009  0.29786758  0.50550708    -0.12690
C141        C  0.16897588  0.25439006  0.50557590     0.00960
C142        C  0.14085055  0.20999607  0.50478921    -0.11220
C143        C  0.09008704  0.20653316  0.01452339     0.03450
C144        C  0.06694035  0.25014675  0.01798577    -0.10640
H145        H  0.16959199  0.33192870  0.50792381     0.09050
H146        H  0.15902813  0.17668939  0.50497842     0.06570
H147        H  0.02758803  0.24807305  0.02736068     0.06420
C148        C  0.40436299  0.17621178  0.61309746     0.03460
C149        C  0.35379033  0.17407616  0.61072878    -0.12690
C150        C  0.33103666  0.21695607  0.60769390     0.00960
C151        C  0.35696286  0.26170489  0.61195090    -0.11220
C152        C  0.40781100  0.26617702  0.61050485     0.03450
C153        C  0.43218566  0.22286883  0.61161856    -0.10640
H154        H  0.33311418  0.13979759  0.60526214     0.09050
H155        H  0.33789727  0.29442060  0.60928168     0.06570
H156        H  0.47191494  0.22551881  0.60840452     0.06420
C157        C  0.18858373  0.43505468  0.66015733     0.03460
C158        C  0.18689269  0.43414446  0.71113940    -0.12690
C159        C  0.23033547  0.43802672  0.73333112     0.00960
C160        C  0.27505609  0.43602930  0.70592672    -0.11220
C161        C  0.27880422  0.43947765  0.65506854     0.03450
C162        C  0.23509427  0.43877162  0.63149885    -0.10640
H163        H  0.15237751  0.43719300  0.73278663     0.09050
H164        H  0.30839418  0.43889462  0.72398490     0.06570
H165        H  0.23726358  0.44393498  0.59183453     0.06420
C166        C  0.31068956  0.03986986  0.96733046     0.03460
C167        C  0.31146871  0.04575430  0.91632243    -0.12690
C168        C  0.26743693  0.04313223  0.89501205     0.00960
C169        C  0.22317499  0.04336896  0.92385435    -0.11220
C170        C  0.22053500  0.03568754  0.97464368     0.03450
C171        C  0.26469806  0.03397123  0.49705024    -0.10640
H172        H  0.34564781  0.04433686  0.89345732     0.09050
H173        H  0.18933021  0.04171851  0.90656271     0.06570
H174        H  0.26327047  0.02550792  0.53641382     0.06420
C175        C  0.05170298  0.08282141  0.75452292     0.03460
C176        C  0.05661814  0.13371294  0.75450668    -0.12690
C177        C  0.05869916  0.15442406  0.79857583     0.00960
C178        C  0.06318957  0.12561636  0.84153899    -0.11220
C179        C  0.05277218  0.07508629  0.84413975     0.03530
C180        C  0.04786637  0.05287751  0.80011607    -0.10640
H181        H  0.05183509  0.15676163  0.72150580     0.09050
H182        H  0.06472607  0.14311202  0.87521554     0.06570
H183        H  0.03855579  0.01363989  0.80152345     0.06420
C184        C  0.45039004  0.39139752  0.87453907     0.03460
C185        C  0.45490659  0.34130681  0.87569353    -0.12690
C186        C  0.45788651  0.31926958  0.83236690     0.00960
C187        C  0.45085752  0.34485092  0.78844506    -0.11220
C188        C  0.45120250  0.39554083  0.78461489     0.03450
C189        C  0.45025839  0.41948057  0.82829175    -0.10640
H190        H  0.46213111  0.32077781  0.90936836     0.09050
H191        H  0.45309265  0.32588438  0.75557131     0.06570
H192        H  0.45267080  0.45909463  0.82613776     0.06420
O193        O  0.07991107  0.37850421  0.49032451    -0.86160
O194        O  0.44167260  0.46008981  0.72302555    -0.86330
O195        O  0.10700603  0.41144207  0.64177423    -0.87990
O196        O  0.47186803  0.32791245  0.62076657    -0.86750
O197        O  0.41121136  0.34785419  0.57310164    -0.86340
O198        O  0.14133154  0.49125082  0.62300976    -0.87710
O199        O  0.48891677  0.39905013  0.70308261    -0.86190
O200        O  0.05905214  0.34356760  0.56967847    -0.85780
Zr201      Zr  0.02314700  0.40506493  0.61593048     2.84310
O202        O  0.44460097  0.43240032  0.61863397    -1.07750
O203        O  0.07816169  0.46009395  0.56246943    -1.08480
C204        C  0.07619125  0.34215473  0.52453895     1.06950
C205        C  0.46135323  0.42052681  0.73389441     1.06890
C206        C  0.14307178  0.44601652  0.63899204     1.09870
C207        C  0.43255400  0.31702215  0.60060079     1.07650
H208        H  0.03826431  0.47962745  0.67426942     0.33210
O209        O  0.02625598  0.48301225  0.64251875    -1.28700
H210        H  0.49249191  0.37666359  0.52504135     0.32880
O211        O  0.49590568  0.40829380  0.53734716    -1.30380
O212        O  0.42320335  0.09534202  0.63799270    -0.86150
O213        O  0.05979599  0.01118229  0.90631081    -0.87650
O214        O  0.07404437  0.06650325  0.67221409    -0.86230
O215        O  0.34052868  0.43051521  0.59043240    -0.86280
O216        O  0.42530596  0.41065289  0.95544679    -0.85990
O217        O  0.15852221  0.04413427  0.53894195    -0.85800
O218        O  0.02655641  0.14433713  0.50609644    -0.86170
O219        O  0.39333099  0.06160360  0.98325288    -0.85630
O220        O  0.08638411  0.12650627  0.55569491    -0.86690
O221        O  0.35764752  0.48247282  0.50366398    -0.85850
O222        O  0.49421876  0.04708952  0.70687266    -0.86250
O223        O  0.14049368  0.49432283  0.97925864    -0.85970
O224        O  0.50582614  0.42849460  0.92249232    -0.85620
O225        O  0.36020853  0.47796017  0.65147544    -0.86030
O226        O  0.44269694  0.12863236  0.55788686    -0.86330
O227        O  0.51068682  0.07157956  0.92382624    -0.87670
Zr228      Zr  0.44789639  0.01111474  0.64553354     2.83100
Zr229      Zr  0.05292377  0.46165139  0.98421886     2.83500
Zr230      Zr  0.08050407  0.03901285  0.58898914     2.84090
Zr231      Zr  0.41818161  0.43539028  0.53976985     2.83360
Zr232      Zr  0.47632965  0.06684965  0.51111938     2.84220
O233        O  0.47426798  0.48867383  0.48563647    -1.08240
O234        O  0.50238486  0.06486592  0.59017264    -1.07740
C235        C  0.42642321  0.13097853  0.60302914     1.06920
C236        C  0.03949180  0.04998418  0.89424143     1.09540
C237        C  0.03952730  0.06351638  0.70844592     1.07090
C238        C  0.32947667  0.45044995  0.62989583     1.07450
C239        C  0.46047983  0.41318309  0.91991632     1.07040
C240        C  0.17038530  0.02312941  0.50034814     1.06590
C241        C  0.06511065  0.15625248  0.52699672     1.07010
C242        C  0.35665705  0.02761121  0.98672117     1.06530
H243        H  0.07812795  0.06322577  0.98719531     0.33210
O244        O  0.05533968  0.04088404  0.50966857    -1.29340
H245        H  0.39032203  0.02637937  0.57062386     0.33230
O246        O  0.42189134  0.01388226  0.56741758    -1.30720
C247        C  0.45937400  0.23000851  0.83671386     0.23930
C248        C  0.48449889  0.27679772  0.82853661    -0.24180
C249        C  0.03434274  0.28406212  0.80919268     0.18830
C250        C  0.05893056  0.24423106  0.79771439     0.23870
C251        C  0.03357458  0.19747141  0.80542142    -0.24130
C252        C  0.48380549  0.19029926  0.82504396     0.18770
F253        F  0.45923698  0.14459147  0.83317696    -0.14090
F254        F  0.41116149  0.22316483  0.85460314    -0.16450
F255        F  0.10700672  0.25103416  0.77934150    -0.16450
F256        F  0.05845186  0.32992756  0.80020876    -0.14090
C257        C  0.21806058  0.00852914  0.78029949     0.23930
C258        C  0.23308081  0.46123257  0.77867610    -0.24180
C259        C  0.26298962  0.44338821  0.81317658     0.18830
C260        C  0.27860401  0.47264638  0.84814187     0.23870
C261        C  0.26374383  0.02000789  0.84973997    -0.24130
C262        C  0.23339386  0.03771577  0.81557208     0.18770
F263        F  0.21743518  0.08271092  0.81751632    -0.14090
F264        F  0.19068921  0.02752455  0.74618973    -0.16450
F265        F  0.30618538  0.45358858  0.88203396    -0.16450
F266        F  0.27867691  0.39824125  0.81157492    -0.14090
C267        C  0.25347561  0.23167995  0.50548997     0.23930
C268        C  0.21336521  0.25057021  0.52932291    -0.24180
C269        C  0.20982866  0.25336273  0.58032265     0.18830
C270        C  0.24653071  0.23793480  0.60716841     0.23870
C271        C  0.28687819  0.21951063  0.58335670    -0.24130
C272        C  0.29044301  0.21649980  0.53238792     0.18770
F273        F  0.33091552  0.20130100  0.00849290    -0.14090
F274        F  0.25620138  0.22736797  0.95658467    -0.16450
F275        F  0.24360547  0.24214526  0.65610112    -0.16450
F276        F  0.16952680  0.26873027  0.60439074    -0.14090
C277        C  0.09600261  0.79637645  0.51234472     0.03460
C278        C  0.14704013  0.79786765  0.00550715    -0.12690
C279        C  0.16897592  0.75439014  0.00557596     0.00960
C280        C  0.14085060  0.70999615  0.00478924    -0.11220
C281        C  0.09008698  0.70653310  0.51452336     0.03450
C282        C  0.06694030  0.75014669  0.51798580    -0.10640
H283        H  0.16959202  0.83192877  0.00792390     0.09050
H284        H  0.15902818  0.67668948  0.00497846     0.06570
H285        H  0.02758798  0.74807297  0.52736078     0.06420
C286        C  0.40436303  0.67621184  0.11309745     0.03460
C287        C  0.35379038  0.67407622  0.11072881    -0.12690
C288        C  0.33103669  0.71695612  0.10769396     0.00960
C289        C  0.35696289  0.76170494  0.11195095    -0.11220
C290        C  0.40781103  0.76617708  0.11050486     0.03450
C291        C  0.43218570  0.72286889  0.11161854    -0.10640
H292        H  0.33311422  0.63979764  0.10526218     0.09050
H293        H  0.33789729  0.79442065  0.10928175     0.06570
H294        H  0.47191498  0.72551888  0.10840447     0.06420
C295        C  0.18858375  0.93505471  0.16015732     0.03460
C296        C  0.18689269  0.93414445  0.21113939    -0.12690
C297        C  0.23033548  0.93802672  0.23333112     0.00960
C298        C  0.27505610  0.93602933  0.20592672    -0.11220
C299        C  0.27880423  0.93947770  0.15506853     0.03450
C300        C  0.23509429  0.93877169  0.13149884    -0.10640
H301        H  0.15237751  0.93719297  0.23278662     0.09050
H302        H  0.30839419  0.93889464  0.22398490     0.06570
H303        H  0.23726360  0.94393507  0.09183453     0.06420
C304        C  0.31068955  0.53986979  0.46733046     0.03460
C305        C  0.31146870  0.54575426  0.41632243    -0.12690
C306        C  0.26743692  0.54313219  0.39501204     0.00960
C307        C  0.22317498  0.54336891  0.42385435    -0.11220
C308        C  0.22053498  0.53568747  0.47464368     0.03450
C309        C  0.26469811  0.53397130  0.99705020    -0.10640
H310        H  0.34564780  0.54433684  0.39345732     0.09050
H311        H  0.18933020  0.54171845  0.40656270     0.06570
H312        H  0.26327053  0.52550800  0.03641379     0.06420
C313        C  0.05170303  0.58282143  0.25452292     0.03460
C314        C  0.05661817  0.63371296  0.25450670    -0.12690
C315        C  0.05869917  0.65442405  0.29857586     0.00960
C316        C  0.06318957  0.62561634  0.34153902    -0.11220
C317        C  0.05277219  0.57508627  0.34413976     0.03530
C318        C  0.04786641  0.55287751  0.30011605    -0.10640
H319        H  0.05183512  0.65676167  0.22150583     0.09050
H320        H  0.06472605  0.64311198  0.37521558     0.06570
H321        H  0.03855584  0.51363989  0.30152341     0.06420
C322        C  0.45038998  0.89139751  0.37453907     0.03460
C323        C  0.45490653  0.84130680  0.37569352    -0.12690
C324        C  0.45788648  0.81926959  0.33236687     0.00960
C325        C  0.45085751  0.84485094  0.28844504    -0.11220
C326        C  0.45120249  0.89554085  0.28461489     0.03450
C327        C  0.45025835  0.91948058  0.32829176    -0.10640
H328        H  0.46213103  0.82077778  0.40936835     0.09050
H329        H  0.45309266  0.82588442  0.25557128     0.06570
H330        H  0.45267076  0.95909463  0.32613778     0.06420
O331        O  0.07991109  0.87850428  0.99032452    -0.86160
O332        O  0.44167259  0.96008985  0.22302556    -0.86330
O333        O  0.10700605  0.91144212  0.14177423    -0.87990
O334        O  0.47186805  0.82791251  0.12076657    -0.86750
O335        O  0.41121138  0.84785425  0.07310165    -0.86340
O336        O  0.14133156  0.99125087  0.12300976    -0.87710
O337        O  0.48891678  0.89905018  0.20308261    -0.86190
O338        O  0.05905216  0.84356767  0.06967848    -0.85780
Zr339      Zr  0.02314701  0.90506499  0.11593049     2.84310
O340        O  0.44460099  0.93240038  0.11863398    -1.07750
O341        O  0.07816171  0.96009401  0.06246944    -1.08480
C342        C  0.07619127  0.84215479  0.02453896     1.06950
C343        C  0.46135322  0.92052685  0.23389442     1.06890
C344        C  0.14307179  0.94601656  0.13899204     1.09870
C345        C  0.43255402  0.81702221  0.10060079     1.07650
H346        H  0.03826432  0.97962750  0.17426943     0.33210
O347        O  0.02625599  0.98301231  0.14251876    -1.28700
H348        H  0.49249193  0.87666366  0.02504136     0.32880
O349        O  0.49590570  0.90829386  0.03734717    -1.30380
O350        O  0.42320340  0.59534208  0.13799268    -0.86150
O351        O  0.05979599  0.51118224  0.40631080    -0.87650
O352        O  0.07404443  0.56650330  0.17221408    -0.86230
O353        O  0.34052870  0.93051528  0.09043240    -0.86280
O354        O  0.42530589  0.91065285  0.45544680    -0.85990
O355        O  0.15852227  0.54413435  0.03894192    -0.85800
O356        O  0.02655646  0.64433720  0.00609641    -0.86170
O357        O  0.39333098  0.56160353  0.48325287    -0.85630
O358        O  0.08638416  0.62650634  0.05569489    -0.86690
O359        O  0.35764754  0.98247289  0.00366398    -0.85850
O360        O  0.49421881  0.54708957  0.20687263    -0.86250
O361        O  0.14049363  0.99432276  0.47925867    -0.85970
O362        O  0.50582608  0.92849455  0.42249234    -0.85620
O363        O  0.36020854  0.97796023  0.15147545    -0.86030
O364        O  0.44269699  0.62863243  0.05788684    -0.86330
O365        O  0.51068681  0.57157950  0.42382623    -0.87670
Zr366      Zr  0.44789644  0.51111481  0.14553351     2.83100
Zr367      Zr  0.05292371  0.96165132  0.48421889     2.83500
Zr368      Zr  0.08050413  0.53901292  0.08898911     2.84090
Zr369      Zr  0.41818163  0.93539034  0.03976985     2.83360
Zr370      Zr  0.47632970  0.56684972  0.01111935     2.84220
O371        O  0.47426799  0.98867390  0.98563648    -1.08240
O372        O  0.50238492  0.56486598  0.09017261    -1.07740
C373        C  0.42642326  0.63097860  0.10302912     1.06920
C374        C  0.03949180  0.54998414  0.39424142     1.09540
C375        C  0.03952736  0.56351643  0.20844591     1.07090
C376        C  0.32947668  0.95045001  0.12989584     1.07450
C377        C  0.46047977  0.91318306  0.41991634     1.07040
C378        C  0.17038536  0.52312948  0.00034811     1.06590
C379        C  0.06511070  0.65625255  0.02699670     1.07010
C380        C  0.35665703  0.52761114  0.48672117     1.06530
H381        H  0.07812793  0.56322571  0.48719529     0.33210
O382        O  0.05533973  0.54088411  0.00966854    -1.29340
H383        H  0.39032209  0.52637943  0.07062382     0.33230
O384        O  0.42189139  0.51388232  0.06741755    -1.30720
C385        C  0.45937399  0.73000851  0.33671389     0.23930
C386        C  0.48449887  0.77679772  0.32853659    -0.24180
C387        C  0.03434273  0.78406212  0.30919266     0.18830
C388        C  0.05893056  0.74423106  0.29771440     0.23870
C389        C  0.03357458  0.69747140  0.30542147    -0.24130
C390        C  0.48380550  0.69029926  0.32504403     0.18770
F391        F  0.45923699  0.64459146  0.33317706    -0.14090
F392        F  0.41116149  0.72316483  0.35460319    -0.16450
F393        F  0.10700671  0.75103416  0.27934150    -0.16450
F394        F  0.05845184  0.82992757  0.30020871    -0.14090
C395        C  0.21806060  0.50852913  0.28029947     0.23930
C396        C  0.23308080  0.96123255  0.27867611    -0.24180
C397        C  0.26298961  0.94338819  0.31317659     0.18830
C398        C  0.27860398  0.97264635  0.34814189     0.23870
C399        C  0.26374383  0.52000787  0.34973996    -0.24130
C400        C  0.23339386  0.53771574  0.31557207     0.18770
F401        F  0.21743517  0.58271089  0.31751632    -0.14090
F402        F  0.19068923  0.52752454  0.24618971    -0.16450
F403        F  0.30618535  0.95358855  0.38203398    -0.16450
F404        F  0.27867692  0.89824123  0.31157491    -0.14090
C405        C  0.25347566  0.73168007  0.00549003     0.23930
C406        C  0.21336524  0.75057028  0.02932298    -0.24180
C407        C  0.20982867  0.75336275  0.08032273     0.18830
C408        C  0.24653072  0.73793481  0.10716849     0.23870
C409        C  0.28687823  0.71951068  0.08335676    -0.24130
C410        C  0.29044306  0.71649991  0.03238797     0.18770
F411        F  0.33091543  0.70130083  0.50849271    -0.14090
F412        F  0.25620127  0.72736783  0.45658450    -0.16450
F413        F  0.24360547  0.74214521  0.15610121    -0.16450
F414        F  0.16952680  0.76873024  0.10439084    -0.14090
C415        C  0.09600264  0.79637652  0.01234471     0.03460
C416        C  0.14704010  0.79786758  0.50550713    -0.12690
C417        C  0.16897589  0.75439006  0.50557595     0.00960
C418        C  0.14085056  0.70999608  0.50478925    -0.11220
C419        C  0.09008702  0.70653317  0.01452334     0.03450
C420        C  0.06694033  0.75014676  0.01798578    -0.10640
H421        H  0.16959200  0.83192870  0.50792387     0.09050
H422        H  0.15902814  0.67668940  0.50497847     0.06570
H423        H  0.02758801  0.74807304  0.02736075     0.06420
C424        C  0.40436300  0.67621178  0.61309747     0.03460
C425        C  0.35379034  0.67407616  0.61072883    -0.12690
C426        C  0.33103666  0.71695606  0.60769396     0.00960
C427        C  0.35696287  0.76170489  0.61195096    -0.11220
C428        C  0.40781101  0.76617702  0.61050488     0.03450
C429        C  0.43218567  0.72286883  0.61161857    -0.10640
H430        H  0.33311418  0.63979759  0.60526219     0.09050
H431        H  0.33789728  0.79442060  0.60928175     0.06570
H432        H  0.47191495  0.72551881  0.60840451     0.06420
C433        C  0.18858374  0.93505468  0.66015735     0.03460
C434        C  0.18689269  0.93414447  0.71113942    -0.12690
C435        C  0.23033548  0.93802674  0.73333114     0.00960
C436        C  0.27505609  0.93602932  0.70592675    -0.11220
C437        C  0.27880422  0.93947765  0.65506856     0.03450
C438        C  0.23509428  0.93877162  0.63149887    -0.10640
H439        H  0.15237751  0.93719302  0.73278665     0.09050
H440        H  0.30839418  0.93889464  0.72398492     0.06570
H441        H  0.23726359  0.94393497  0.59183455     0.06420
C442        C  0.31068960  0.53986983  0.96733043     0.03460
C443        C  0.31146875  0.54575426  0.91632240    -0.12690
C444        C  0.26743696  0.54313220  0.89501202     0.00960
C445        C  0.22317503  0.54336895  0.92385432    -0.11220
C446        C  0.22053504  0.53568753  0.97464365     0.03450
C447        C  0.26469806  0.53397123  0.49705023    -0.10640
H448        H  0.34564784  0.54433681  0.89345729     0.09050
H449        H  0.18933025  0.54171850  0.90656268     0.06570
H450        H  0.26327047  0.52550792  0.53641381     0.06420
C451        C  0.05170298  0.58282142  0.75452290     0.03460
C452        C  0.05661813  0.63371294  0.75450667    -0.12690
C453        C  0.05869918  0.65442406  0.79857581     0.00960
C454        C  0.06318960  0.62561635  0.84153897    -0.11220
C455        C  0.05277221  0.57508629  0.84413973     0.03530
C456        C  0.04786639  0.55287751  0.80011604    -0.10640
H457        H  0.05183507  0.65676164  0.72150579     0.09050
H458        H  0.06472611  0.64311201  0.87521552     0.06570
H459        H  0.03855581  0.51363989  0.80152342     0.06420
C460        C  0.45039001  0.89139752  0.87453908     0.03460
C461        C  0.45490656  0.84130681  0.87569355    -0.12690
C462        C  0.45788649  0.81926958  0.83236691     0.00960
C463        C  0.45085750  0.84485092  0.78844507    -0.11220
C464        C  0.45120249  0.89554083  0.78461490     0.03450
C465        C  0.45025836  0.91948057  0.82829177    -0.10640
H466        H  0.46213108  0.82077780  0.90936838     0.09050
H467        H  0.45309264  0.82588438  0.75557132     0.06570
H468        H  0.45267077  0.95909463  0.82613777     0.06420
O469        O  0.07991107  0.87850421  0.49032453    -0.86160
O470        O  0.44167259  0.96008981  0.72302557    -0.86330
O471        O  0.10700604  0.91144207  0.64177424    -0.87990
O472        O  0.47186804  0.82791245  0.62076660    -0.86750
O473        O  0.41121136  0.84785419  0.57310166    -0.86340
O474        O  0.14133155  0.99125083  0.62300977    -0.87710
O475        O  0.48891677  0.89905013  0.70308263    -0.86190
O476        O  0.05905215  0.84356761  0.56967849    -0.85780
Zr477      Zr  0.02314701  0.90506493  0.61593050     2.84310
O478        O  0.44460098  0.93240032  0.61863399    -1.07750
O479        O  0.07816169  0.96009395  0.56246945    -1.08480
C480        C  0.07619125  0.84215473  0.52453897     1.06950
C481        C  0.46135322  0.92052682  0.73389443     1.06890
C482        C  0.14307178  0.94601652  0.63899206     1.09870
C483        C  0.43255401  0.81702215  0.60060081     1.07650
H484        H  0.03826431  0.97962746  0.67426943     0.33210
O485        O  0.02625598  0.98301226  0.64251877    -1.28700
H486        H  0.49249192  0.87666359  0.52504137     0.32880
O487        O  0.49590568  0.90829379  0.53734718    -1.30380
O488        O  0.42320335  0.59534201  0.63799269    -0.86150
O489        O  0.05979603  0.51118228  0.90631079    -0.87650
O490        O  0.07404437  0.56650325  0.67221408    -0.86230
O491        O  0.34052868  0.93051521  0.59043242    -0.86280
O492        O  0.42530591  0.91065290  0.95544680    -0.85990
O493        O  0.15852221  0.54413427  0.53894194    -0.85800
O494        O  0.02655642  0.64433713  0.50609643    -0.86170
O495        O  0.39333103  0.56160358  0.98325285    -0.85630
O496        O  0.08638411  0.62650626  0.55569491    -0.86690
O497        O  0.35764752  0.98247281  0.50366400    -0.85850
O498        O  0.49421876  0.54708952  0.70687264    -0.86250
O499        O  0.14049364  0.99432283  0.97925866    -0.85970
O500        O  0.50582611  0.92849459  0.92249234    -0.85620
O501        O  0.36020853  0.97796018  0.65147546    -0.86030
O502        O  0.44269695  0.62863237  0.55788686    -0.86330
O503        O  0.51068685  0.57157955  0.92382622    -0.87670
Zr504      Zr  0.44789638  0.51111474  0.64553353     2.83100
Zr505      Zr  0.05292373  0.96165139  0.98421888     2.83500
Zr506      Zr  0.08050407  0.53901284  0.58898913     2.84090
Zr507      Zr  0.41818161  0.93539027  0.53976987     2.83360
Zr508      Zr  0.47632965  0.56684966  0.51111937     2.84220
O509        O  0.47426797  0.98867381  0.48563648    -1.08240
O510        O  0.50238487  0.56486591  0.59017263    -1.07740
C511        C  0.42642322  0.63097853  0.60302914     1.06920
C512        C  0.03949184  0.54998417  0.89424141     1.09540
C513        C  0.03952730  0.56351639  0.70844591     1.07090
C514        C  0.32947667  0.95044995  0.62989586     1.07450
C515        C  0.46047979  0.91318309  0.91991634     1.07040
C516        C  0.17038530  0.52312941  0.50034813     1.06590
C517        C  0.06511065  0.65625248  0.52699672     1.07010
C518        C  0.35665708  0.52761118  0.98672114     1.06530
H519        H  0.07812798  0.56322577  0.98719528     0.33210
O520        O  0.05533968  0.54088405  0.50966855    -1.29340
H521        H  0.39032204  0.52637937  0.57062384     0.33230
O522        O  0.42189134  0.51388227  0.56741756    -1.30720
C523        C  0.45937398  0.73000851  0.83671388     0.23930
C524        C  0.48449887  0.77679772  0.82853662    -0.24180
C525        C  0.03434277  0.78406212  0.80919270     0.18830
C526        C  0.05893059  0.74423106  0.79771440     0.23870
C527        C  0.03357460  0.69747141  0.80542143    -0.24130
C528        C  0.48380548  0.69029926  0.82504397     0.18770
F529        F  0.45923696  0.64459146  0.83317698    -0.14090
F530        F  0.41116148  0.72316483  0.85460317    -0.16450
F531        F  0.10700674  0.75103416  0.77934149    -0.16450
F532        F  0.05845188  0.82992756  0.80020877    -0.14090
C533        C  0.21806060  0.50852912  0.78029947     0.23930
C534        C  0.23308081  0.96123259  0.77867612    -0.24180
C535        C  0.26298962  0.94338825  0.81317660     0.18830
C536        C  0.27860400  0.97264641  0.84814189     0.23870
C537        C  0.26374386  0.52000786  0.84973994    -0.24130
C538        C  0.23339389  0.53771575  0.81557205     0.18770
F539        F  0.21743523  0.58271091  0.81751629    -0.14090
F540        F  0.19068924  0.52752454  0.74618970    -0.16450
F541        F  0.30618538  0.95358863  0.88203398    -0.16450
F542        F  0.27867693  0.89824129  0.81157494    -0.14090
C543        C  0.25347562  0.73167994  0.50549003     0.23930
C544        C  0.21336522  0.75057021  0.52932296    -0.24180
C545        C  0.20982867  0.75336274  0.58032270     0.18830
C546        C  0.24653071  0.73793481  0.60716847     0.23870
C547        C  0.28687820  0.71951063  0.58335676    -0.24130
C548        C  0.29044301  0.71649980  0.53238798     0.18770
F549        F  0.33091550  0.70130100  0.00849268    -0.14090
F550        F  0.25620134  0.72736802  0.95658448    -0.16450
F551        F  0.24360548  0.74214528  0.65610118    -0.16450
F552        F  0.16952681  0.76873028  0.60439080    -0.14090
C553        C  0.59600261  0.29637645  0.51234469     0.03460
C554        C  0.64704016  0.29786764  0.00550724    -0.12690
C555        C  0.66897595  0.25439012  0.00557611     0.00960
C556        C  0.64085063  0.20999613  0.00478938    -0.11220
C557        C  0.59008697  0.20653310  0.51452334     0.03450
C558        C  0.56694029  0.25014668  0.51798580    -0.10640
H559        H  0.66959205  0.33192876  0.00792400     0.09050
H560        H  0.65902821  0.17668945  0.00497864     0.06570
H561        H  0.52758798  0.24807297  0.52736080     0.06420
C562        C  0.90436305  0.17621186  0.11309753     0.03460
C563        C  0.85379038  0.17407624  0.11072899    -0.12690
C564        C  0.83103670  0.21695615  0.10769416     0.00960
C565        C  0.85696292  0.26170497  0.11195112    -0.11220
C566        C  0.90781107  0.26617710  0.11050492     0.03450
C567        C  0.93218573  0.22286890  0.11161856    -0.10640
H568        H  0.83311419  0.13979767  0.10526239     0.09050
H569        H  0.83789734  0.29442068  0.10928193     0.06570
H570        H  0.97191501  0.22551889  0.10840442     0.06420
C571        C  0.68858380  0.43505474  0.16015730     0.03460
C572        C  0.68689274  0.43414449  0.21113937    -0.12690
C573        C  0.73033552  0.43802675  0.23333110     0.00960
C574        C  0.77505614  0.43602935  0.20592670    -0.11220
C575        C  0.77880428  0.43947771  0.15506852     0.03450
C576        C  0.73509434  0.43877170  0.13149882    -0.10640
H577        H  0.65237756  0.43719301  0.23278660     0.09050
H578        H  0.80839423  0.43889467  0.22398488     0.06570
H579        H  0.73726365  0.44393508  0.09183451     0.06420
C580        C  0.81068954  0.03986977  0.46733047     0.03460
C581        C  0.81146870  0.04575423  0.41632244    -0.12690
C582        C  0.76743691  0.04313215  0.39501206     0.00960
C583        C  0.72317498  0.04336889  0.42385436    -0.11220
C584        C  0.72053498  0.03568746  0.47464369     0.03450
C585        C  0.76469807  0.03397131  0.99705023    -0.10640
H586        H  0.84564779  0.04433679  0.39345733     0.09050
H587        H  0.68933019  0.04171843  0.40656272     0.06570
H588        H  0.76327049  0.02550801  0.03641382     0.06420
C589        C  0.55170300  0.08282142  0.25452294     0.03460
C590        C  0.55661816  0.13371294  0.25450672    -0.12690
C591        C  0.55869918  0.15442404  0.29857588     0.00960
C592        C  0.56318959  0.12561632  0.34153904    -0.11220
C593        C  0.55277219  0.07508625  0.34413977     0.03530
C594        C  0.54786638  0.05287749  0.30011607    -0.10640
H595        H  0.55183511  0.15676165  0.22150586     0.09050
H596        H  0.56472608  0.14311196  0.37521560     0.06570
H597        H  0.53855579  0.01363988  0.30152343     0.06420
C598        C  0.95039000  0.39139751  0.37453905     0.03460
C599        C  0.95490655  0.34130681  0.37569350    -0.12690
C600        C  0.95788652  0.31926960  0.33236685     0.00960
C601        C  0.95085757  0.34485095  0.28844502    -0.11220
C602        C  0.95120253  0.39554087  0.28461486     0.03450
C603        C  0.95025837  0.41948059  0.32829174    -0.10640
H604        H  0.96213104  0.32077779  0.40936833     0.09050
H605        H  0.95309273  0.32588443  0.25557125     0.06570
H606        H  0.95267078  0.45909464  0.32613776     0.06420
O607        O  0.57991112  0.37850427  0.99032450    -0.86160
O608        O  0.94167264  0.46008986  0.22302554    -0.86330
O609        O  0.60700610  0.41144215  0.14177421    -0.87990
O610        O  0.97186811  0.32791253  0.12076658    -0.86750
O611        O  0.91121142  0.34785425  0.07310166    -0.86340
O612        O  0.64133161  0.49125090  0.12300973    -0.87710
O613        O  0.98891683  0.39905020  0.20308259    -0.86190
O614        O  0.55905221  0.34356768  0.06967847    -0.85780
Zr615      Zr  0.52314707  0.40506501  0.11593047     2.84310
O616        O  0.94460104  0.43240039  0.11863396    -1.07750
O617        O  0.57816175  0.46009403  0.06246942    -1.08480
C618        C  0.57619130  0.34215479  0.02453895     1.06950
C619        C  0.96135327  0.42052687  0.23389439     1.06890
C620        C  0.64307184  0.44601659  0.13899201     1.09870
C621        C  0.93255407  0.31702222  0.10060082     1.07650
H622        H  0.53826437  0.47962752  0.17426941     0.33210
O623        O  0.52625604  0.48301233  0.14251874    -1.28700
H624        H  0.99249197  0.37666365  0.02504135     0.32880
O625        O  0.99590574  0.40829386  0.03734715    -1.30380
O626        O  0.92320337  0.09534207  0.13799272    -0.86150
O627        O  0.55979599  0.01118223  0.40631082    -0.87650
O628        O  0.57404439  0.06650329  0.17221410    -0.86230
O629        O  0.84052874  0.43051528  0.09043239    -0.86280
O630        O  0.92530590  0.41065286  0.45544678    -0.85990
O631        O  0.65852223  0.04413433  0.03894195    -0.85800
O632        O  0.52655646  0.14433720  0.00609644    -0.86170
O633        O  0.89333097  0.06160351  0.48325288    -0.85630
O634        O  0.58638414  0.12650632  0.05569493    -0.86690
O635        O  0.85764758  0.48247287  0.00366396    -0.85850
O636        O  0.99421877  0.04708955  0.20687266    -0.86250
O637        O  0.64049363  0.49432276  0.47925865    -0.85970
O638        O  0.00582609  0.42849456  0.42249233    -0.85620
O639        O  0.86020858  0.47796024  0.15147543    -0.86030
O640        O  0.94269698  0.12863245  0.05788689    -0.86330
O641        O  0.01068681  0.07157949  0.42382625    -0.87670
Zr642      Zr  0.94789640  0.01111479  0.14553354     2.83100
Zr643      Zr  0.55292372  0.46165133  0.48421887     2.83500
Zr644      Zr  0.58050409  0.03901290  0.08898915     2.84090
Zr645      Zr  0.91818167  0.43539033  0.03976984     2.83360
Zr646      Zr  0.97632967  0.06684974  0.01111938     2.84220
O647        O  0.97426803  0.48867388  0.98563646    -1.08240
O648        O  0.00238488  0.06486597  0.09017264    -1.07740
C649        C  0.92642325  0.13097860  0.10302917     1.06920
C650        C  0.53949180  0.04998412  0.39424144     1.09540
C651        C  0.53952732  0.06351641  0.20844593     1.07090
C652        C  0.82947673  0.45045002  0.12989582     1.07450
C653        C  0.96047977  0.41318307  0.41991632     1.07040
C654        C  0.67038532  0.02312948  0.00034814     1.06590
C655        C  0.56511069  0.15625254  0.02699673     1.07010
C656        C  0.85665702  0.02761112  0.48672118     1.06530
H657        H  0.57812793  0.06322570  0.48719531     0.33210
O658        O  0.55533970  0.04088411  0.00966857    -1.29340
H659        H  0.89032205  0.02637944  0.07062385     0.33230
O660        O  0.92189136  0.01388233  0.06741757    -1.30720
C661        C  0.95937402  0.23000852  0.33671391     0.23930
C662        C  0.98449890  0.27679773  0.32853658    -0.24180
C663        C  0.53434277  0.28406212  0.30919264     0.18830
C664        C  0.55893059  0.24423104  0.29771439     0.23870
C665        C  0.53357461  0.19747139  0.30542150    -0.24130
C666        C  0.98380552  0.19029926  0.32504406     0.18770
F667        F  0.95923701  0.14459146  0.33317712    -0.14090
F668        F  0.91116152  0.22316485  0.35460322    -0.16450
F669        F  0.60700674  0.25103414  0.27934147    -0.16450
F670        F  0.55845188  0.32992756  0.30020865    -0.14090
C671        C  0.71806057  0.00852910  0.28029949     0.23930
C672        C  0.73308084  0.46123259  0.27867608    -0.24180
C673        C  0.76298965  0.44338824  0.31317657     0.18830
C674        C  0.77860402  0.47264639  0.34814187     0.23870
C675        C  0.76374382  0.02000783  0.34973997    -0.24130
C676        C  0.73339385  0.03771571  0.31557209     0.18770
F677        F  0.71743517  0.08271087  0.31751634    -0.14090
F678        F  0.69068920  0.02752451  0.24618973    -0.16450
F679        F  0.80618539  0.45358860  0.38203396    -0.16450
F680        F  0.77867697  0.39824128  0.31157489    -0.14090
C681        C  0.75347569  0.23168005  0.00549021     0.23930
C682        C  0.71336526  0.25057028  0.02932314    -0.24180
C683        C  0.70982869  0.25336279  0.08032288     0.18830
C684        C  0.74653074  0.23793488  0.10716866     0.23870
C685        C  0.78687824  0.21951072  0.08335696    -0.24130
C686        C  0.79044308  0.21649992  0.03238817     0.18770
F687        F  0.83091542  0.20130084  0.50849264    -0.14090
F688        F  0.75620127  0.22736783  0.45658443    -0.16450
F689        F  0.74360549  0.24214533  0.15610137    -0.16450
F690        F  0.66952681  0.26873031  0.10439097    -0.14090
C691        C  0.59600268  0.29637651  0.01234472     0.03460
C692        C  0.64704009  0.29786758  0.50550708    -0.12690
C693        C  0.66897588  0.25439006  0.50557589     0.00960
C694        C  0.64085055  0.20999607  0.50478921    -0.11220
C695        C  0.59008704  0.20653316  0.01452339     0.03450
C696        C  0.56694035  0.25014676  0.01798577    -0.10640
H697        H  0.66959199  0.33192870  0.50792381     0.09050
H698        H  0.65902813  0.17668939  0.50497842     0.06570
H699        H  0.52758803  0.24807305  0.02736068     0.06420
C700        C  0.90436299  0.17621178  0.61309746     0.03460
C701        C  0.85379034  0.17407616  0.61072878    -0.12690
C702        C  0.83103666  0.21695607  0.60769390     0.00960
C703        C  0.85696286  0.26170489  0.61195090    -0.11220
C704        C  0.90781100  0.26617702  0.61050485     0.03450
C705        C  0.93218566  0.22286883  0.61161856    -0.10640
H706        H  0.83311418  0.13979759  0.60526214     0.09050
H707        H  0.83789727  0.29442060  0.60928167     0.06570
H708        H  0.97191494  0.22551881  0.60840453     0.06420
C709        C  0.68858373  0.43505468  0.66015733     0.03460
C710        C  0.68689269  0.43414446  0.71113940    -0.12690
C711        C  0.73033547  0.43802672  0.73333112     0.00960
C712        C  0.77505608  0.43602931  0.70592673    -0.11220
C713        C  0.77880422  0.43947765  0.65506854     0.03450
C714        C  0.73509427  0.43877162  0.63149885    -0.10640
H715        H  0.65237751  0.43719300  0.73278663     0.09050
H716        H  0.80839418  0.43889462  0.72398490     0.06570
H717        H  0.73726358  0.44393498  0.59183453     0.06420
C718        C  0.81068956  0.03986986  0.96733046     0.03460
C719        C  0.81146871  0.04575430  0.91632243    -0.12690
C720        C  0.76743693  0.04313223  0.89501205     0.00960
C721        C  0.72317499  0.04336896  0.92385435    -0.11220
C722        C  0.72053500  0.03568754  0.97464368     0.03450
C723        C  0.76469806  0.03397123  0.49705024    -0.10640
H724        H  0.84564781  0.04433687  0.89345732     0.09050
H725        H  0.68933021  0.04171851  0.90656271     0.06570
H726        H  0.76327047  0.02550792  0.53641383     0.06420
C727        C  0.55170298  0.08282141  0.75452292     0.03460
C728        C  0.55661815  0.13371294  0.75450668    -0.12690
C729        C  0.55869918  0.15442406  0.79857583     0.00960
C730        C  0.56318958  0.12561636  0.84153899    -0.11220
C731        C  0.55277218  0.07508629  0.84413975     0.03530
C732        C  0.54786637  0.05287750  0.80011607    -0.10640
H733        H  0.55183510  0.15676163  0.72150580     0.09050
H734        H  0.56472608  0.14311202  0.87521554     0.06570
H735        H  0.53855578  0.01363989  0.80152345     0.06420
C736        C  0.95039004  0.39139752  0.87453907     0.03460
C737        C  0.95490657  0.34130681  0.87569353    -0.12690
C738        C  0.95788648  0.31926958  0.83236689     0.00960
C739        C  0.95085750  0.34485092  0.78844506    -0.11220
C740        C  0.95120249  0.39554084  0.78461489     0.03450
C741        C  0.95025838  0.41948058  0.82829175    -0.10640
H742        H  0.96213109  0.32077780  0.90936836     0.09050
H743        H  0.95309262  0.32588439  0.75557131     0.06570
H744        H  0.95267081  0.45909464  0.82613776     0.06420
O745        O  0.57991107  0.37850421  0.49032451    -0.86160
O746        O  0.94167259  0.46008981  0.72302555    -0.86330
O747        O  0.60700604  0.41144207  0.64177422    -0.87990
O748        O  0.97186803  0.32791245  0.62076657    -0.86750
O749        O  0.91121136  0.34785419  0.57310164    -0.86340
O750        O  0.64133154  0.49125082  0.62300976    -0.87710
O751        O  0.98891677  0.39905013  0.70308261    -0.86190
O752        O  0.55905214  0.34356760  0.56967847    -0.85780
Zr753      Zr  0.52314700  0.40506493  0.61593048     2.84310
O754        O  0.94460097  0.43240033  0.61863397    -1.07750
O755        O  0.57816169  0.46009395  0.56246943    -1.08480
C756        C  0.57619125  0.34215473  0.52453895     1.06950
C757        C  0.96135322  0.42052682  0.73389441     1.06890
C758        C  0.64307178  0.44601651  0.63899204     1.09870
C759        C  0.93255400  0.31702215  0.60060079     1.07650
H760        H  0.53826431  0.47962745  0.67426942     0.33210
O761        O  0.52625598  0.48301225  0.64251875    -1.28700
H762        H  0.99249191  0.37666360  0.52504135     0.32880
O763        O  0.99590568  0.40829380  0.53734716    -1.30380
O764        O  0.92320335  0.09534202  0.63799270    -0.86150
O765        O  0.55979599  0.01118228  0.90631081    -0.87650
O766        O  0.57404437  0.06650325  0.67221409    -0.86230
O767        O  0.84052868  0.43051522  0.59043240    -0.86280
O768        O  0.92530595  0.41065289  0.95544679    -0.85990
O769        O  0.65852221  0.04413427  0.53894195    -0.85800
O770        O  0.52655641  0.14433713  0.50609644    -0.86170
O771        O  0.89333099  0.06160360  0.98325288    -0.85630
O772        O  0.58638411  0.12650627  0.55569491    -0.86690
O773        O  0.85764752  0.48247282  0.50366398    -0.85850
O774        O  0.99421876  0.04708952  0.70687266    -0.86250
O775        O  0.64049368  0.49432283  0.97925864    -0.85970
O776        O  0.00582614  0.42849459  0.92249232    -0.85620
O777        O  0.86020853  0.47796017  0.65147544    -0.86030
O778        O  0.94269694  0.12863237  0.55788686    -0.86330
O779        O  0.01068682  0.07157956  0.92382624    -0.87670
Zr780      Zr  0.94789639  0.01111474  0.64553354     2.83100
Zr781      Zr  0.55292377  0.46165139  0.98421886     2.83500
Zr782      Zr  0.58050407  0.03901284  0.58898914     2.84090
Zr783      Zr  0.91818161  0.43539028  0.53976985     2.83360
Zr784      Zr  0.97632965  0.06684966  0.51111938     2.84220
O785        O  0.97426798  0.48867383  0.48563647    -1.08240
O786        O  0.00238487  0.06486592  0.59017264    -1.07740
C787        C  0.92642321  0.13097854  0.60302914     1.06920
C788        C  0.53949180  0.04998418  0.89424143     1.09540
C789        C  0.53952730  0.06351638  0.70844592     1.07090
C790        C  0.82947667  0.45044995  0.62989584     1.07450
C791        C  0.96047983  0.41318309  0.91991632     1.07040
C792        C  0.67038530  0.02312941  0.50034814     1.06590
C793        C  0.56511064  0.15625248  0.52699672     1.07010
C794        C  0.85665704  0.02761121  0.98672117     1.06530
H795        H  0.57812795  0.06322577  0.98719531     0.33210
O796        O  0.55533968  0.04088404  0.50966857    -1.29340
H797        H  0.89032204  0.02637937  0.57062386     0.33230
O798        O  0.92189134  0.01388226  0.56741758    -1.30720
C799        C  0.95937398  0.23000851  0.83671386     0.23930
C800        C  0.98449887  0.27679772  0.82853660    -0.24180
C801        C  0.53434276  0.28406212  0.80919269     0.18830
C802        C  0.55893059  0.24423105  0.79771440     0.23870
C803        C  0.53357459  0.19747141  0.80542143    -0.24130
C804        C  0.98380548  0.19029926  0.82504396     0.18770
F805        F  0.95923697  0.14459146  0.83317697    -0.14090
F806        F  0.91116148  0.22316483  0.85460314    -0.16450
F807        F  0.60700674  0.25103416  0.77934152    -0.16450
F808        F  0.55845188  0.32992756  0.80020877    -0.14090
C809        C  0.71806058  0.00852915  0.78029949     0.23930
C810        C  0.73308080  0.46123257  0.77867610    -0.24180
C811        C  0.76298961  0.44338821  0.81317658     0.18830
C812        C  0.77860400  0.47264638  0.84814187     0.23870
C813        C  0.76374383  0.02000790  0.84973997    -0.24130
C814        C  0.73339385  0.03771577  0.81557208     0.18770
F815        F  0.71743518  0.08271093  0.81751632    -0.14090
F816        F  0.69068921  0.02752456  0.74618973    -0.16450
F817        F  0.80618537  0.45358858  0.88203397    -0.16450
F818        F  0.77867691  0.39824125  0.81157492    -0.14090
C819        C  0.75347561  0.23167994  0.50548997     0.23930
C820        C  0.71336521  0.25057021  0.52932291    -0.24180
C821        C  0.70982866  0.25336273  0.58032265     0.18830
C822        C  0.74653070  0.23793480  0.60716841     0.23870
C823        C  0.78687819  0.21951062  0.58335670    -0.24130
C824        C  0.79044301  0.21649979  0.53238791     0.18770
F825        F  0.83091552  0.20130100  0.00849290    -0.14090
F826        F  0.75620138  0.22736797  0.95658467    -0.16450
F827        F  0.74360547  0.24214525  0.65610112    -0.16450
F828        F  0.66952680  0.26873026  0.60439074    -0.14090
C829        C  0.59600261  0.79637645  0.51234472     0.03460
C830        C  0.64704013  0.79786765  0.00550714    -0.12690
C831        C  0.66897592  0.75439014  0.00557596     0.00960
C832        C  0.64085060  0.70999615  0.00478923    -0.11220
C833        C  0.59008698  0.70653310  0.51452336     0.03450
C834        C  0.56694030  0.75014669  0.51798580    -0.10640
H835        H  0.66959203  0.83192877  0.00792390     0.09050
H836        H  0.65902818  0.67668948  0.00497845     0.06570
H837        H  0.52758798  0.74807297  0.52736078     0.06420
C838        C  0.90436303  0.67621184  0.11309745     0.03460
C839        C  0.85379038  0.67407622  0.11072881    -0.12690
C840        C  0.83103669  0.71695611  0.10769395     0.00960
C841        C  0.85696289  0.76170494  0.11195095    -0.11220
C842        C  0.90781103  0.76617708  0.11050485     0.03450
C843        C  0.93218570  0.72286889  0.11161853    -0.10640
H844        H  0.83311422  0.63979764  0.10526218     0.09050
H845        H  0.83789729  0.79442065  0.10928175     0.06570
H846        H  0.97191498  0.72551888  0.10840447     0.06420
C847        C  0.68858375  0.93505472  0.16015732     0.03460
C848        C  0.68689270  0.93414446  0.21113940    -0.12690
C849        C  0.73033548  0.93802672  0.23333112     0.00960
C850        C  0.77505610  0.93602933  0.20592672    -0.11220
C851        C  0.77880423  0.93947770  0.15506854     0.03450
C852        C  0.73509429  0.93877169  0.13149884    -0.10640
H853        H  0.65237752  0.93719297  0.23278663     0.09050
H854        H  0.80839419  0.93889464  0.22398490     0.06570
H855        H  0.73726360  0.94393507  0.09183453     0.06420
C856        C  0.81068955  0.53986979  0.46733046     0.03460
C857        C  0.81146870  0.54575426  0.41632243    -0.12690
C858        C  0.76743692  0.54313219  0.39501204     0.00960
C859        C  0.72317498  0.54336890  0.42385435    -0.11220
C860        C  0.72053498  0.53568747  0.47464367     0.03450
C861        C  0.76469811  0.53397130  0.99705020    -0.10640
H862        H  0.84564780  0.54433684  0.39345732     0.09050
H863        H  0.68933020  0.54171845  0.40656270     0.06570
H864        H  0.76327053  0.52550800  0.03641379     0.06420
C865        C  0.55170303  0.58282144  0.25452292     0.03460
C866        C  0.55661817  0.63371296  0.25450670    -0.12690
C867        C  0.55869918  0.65442405  0.29857587     0.00960
C868        C  0.56318958  0.62561634  0.34153902    -0.11220
C869        C  0.55277219  0.57508627  0.34413976     0.03530
C870        C  0.54786641  0.55287751  0.30011605    -0.10640
H871        H  0.55183513  0.65676167  0.22150584     0.09050
H872        H  0.56472606  0.64311198  0.37521558     0.06570
H873        H  0.53855583  0.51363989  0.30152341     0.06420
C874        C  0.95038998  0.89139751  0.37453907     0.03460
C875        C  0.95490653  0.84130680  0.37569352    -0.12690
C876        C  0.95788647  0.81926959  0.33236687     0.00960
C877        C  0.95085751  0.84485094  0.28844504    -0.11220
C878        C  0.95120248  0.89554085  0.28461489     0.03450
C879        C  0.95025835  0.91948058  0.32829176    -0.10640
H880        H  0.96213103  0.82077778  0.40936835     0.09050
H881        H  0.95309265  0.82588442  0.25557128     0.06570
H882        H  0.95267076  0.95909464  0.32613778     0.06420
O883        O  0.57991109  0.87850428  0.99032452    -0.86160
O884        O  0.94167259  0.96008985  0.22302556    -0.86330
O885        O  0.60700605  0.91144212  0.14177423    -0.87990
O886        O  0.97186805  0.82791251  0.12076657    -0.86750
O887        O  0.91121138  0.84785425  0.07310165    -0.86340
O888        O  0.64133156  0.99125087  0.12300976    -0.87710
O889        O  0.98891678  0.89905018  0.20308261    -0.86190
O890        O  0.55905216  0.84356767  0.06967848    -0.85780
Zr891      Zr  0.52314702  0.90506499  0.11593049     2.84310
O892        O  0.94460099  0.93240038  0.11863397    -1.07750
O893        O  0.57816171  0.96009401  0.06246944    -1.08480
C894        C  0.57619127  0.84215479  0.02453896     1.06950
C895        C  0.96135322  0.92052685  0.23389442     1.06890
C896        C  0.64307179  0.94601656  0.13899204     1.09870
C897        C  0.93255402  0.81702221  0.10060079     1.07650
H898        H  0.53826432  0.97962750  0.17426943     0.33210
O899        O  0.52625599  0.98301231  0.14251876    -1.28700
H900        H  0.99249193  0.87666366  0.02504136     0.32880
O901        O  0.99590570  0.90829386  0.03734717    -1.30380
O902        O  0.92320340  0.59534208  0.13799267    -0.86150
O903        O  0.55979599  0.51118224  0.40631080    -0.87650
O904        O  0.57404443  0.56650331  0.17221408    -0.86230
O905        O  0.84052870  0.93051528  0.09043240    -0.86280
O906        O  0.92530589  0.91065285  0.45544680    -0.85990
O907        O  0.65852227  0.54413435  0.03894192    -0.85800
O908        O  0.52655646  0.64433720  0.00609641    -0.86170
O909        O  0.89333097  0.56160353  0.48325287    -0.85630
O910        O  0.58638416  0.62650634  0.05569489    -0.86690
O911        O  0.85764754  0.98247289  0.00366398    -0.85850
O912        O  0.99421881  0.54708957  0.20687263    -0.86250
O913        O  0.64049363  0.99432276  0.47925867    -0.85970
O914        O  0.00582608  0.92849455  0.42249234    -0.85620
O915        O  0.86020854  0.97796023  0.15147545    -0.86030
O916        O  0.94269699  0.62863243  0.05788684    -0.86330
O917        O  0.01068681  0.57157950  0.42382623    -0.87670
Zr918      Zr  0.94789644  0.51111481  0.14553351     2.83100
Zr919      Zr  0.55292371  0.96165132  0.48421889     2.83500
Zr920      Zr  0.58050413  0.53901292  0.08898912     2.84090
Zr921      Zr  0.91818163  0.93539035  0.03976985     2.83360
Zr922      Zr  0.97632970  0.56684972  0.01111935     2.84220
O923        O  0.97426799  0.98867390  0.98563648    -1.08240
O924        O  0.00238492  0.56486598  0.09017261    -1.07740
C925        C  0.92642326  0.63097860  0.10302912     1.06920
C926        C  0.53949180  0.54998414  0.39424142     1.09540
C927        C  0.53952736  0.56351643  0.20844591     1.07090
C928        C  0.82947668  0.95045001  0.12989584     1.07450
C929        C  0.96047977  0.91318306  0.41991634     1.07040
C930        C  0.67038536  0.52312949  0.00034811     1.06590
C931        C  0.56511070  0.65625255  0.02699670     1.07010
C932        C  0.85665703  0.52761114  0.48672117     1.06530
H933        H  0.57812793  0.56322571  0.48719529     0.33210
O934        O  0.55533973  0.54088411  0.00966854    -1.29340
H935        H  0.89032209  0.52637943  0.07062382     0.33230
O936        O  0.92189139  0.51388232  0.06741755    -1.30720
C937        C  0.95937398  0.73000851  0.33671389     0.23930
C938        C  0.98449886  0.77679772  0.32853659    -0.24180
C939        C  0.53434274  0.78406212  0.30919266     0.18830
C940        C  0.55893057  0.74423106  0.29771440     0.23870
C941        C  0.53357459  0.69747140  0.30542147    -0.24130
C942        C  0.98380549  0.69029925  0.32504402     0.18770
F943        F  0.95923698  0.64459146  0.33317706    -0.14090
F944        F  0.91116148  0.72316483  0.35460318    -0.16450
F945        F  0.60700672  0.75103416  0.27934150    -0.16450
F946        F  0.55845185  0.82992757  0.30020871    -0.14090
C947        C  0.71806061  0.50852913  0.28029947     0.23930
C948        C  0.73308080  0.96123255  0.27867611    -0.24180
C949        C  0.76298962  0.94338820  0.31317659     0.18830
C950        C  0.77860399  0.97264635  0.34814189     0.23870
C951        C  0.76374384  0.52000787  0.34973996    -0.24130
C952        C  0.73339387  0.53771575  0.31557207     0.18770
F953        F  0.71743519  0.58271090  0.31751632    -0.14090
F954        F  0.69068925  0.52752455  0.24618970    -0.16450
F955        F  0.80618537  0.95358856  0.38203398    -0.16450
F956        F  0.77867693  0.89824124  0.31157491    -0.14090
C957        C  0.75347566  0.73168006  0.00549002     0.23930
C958        C  0.71336524  0.75057028  0.02932298    -0.24180
C959        C  0.70982867  0.75336275  0.08032273     0.18830
C960        C  0.74653072  0.73793481  0.10716849     0.23870
C961        C  0.78687823  0.71951068  0.08335676    -0.24130
C962        C  0.79044306  0.71649991  0.03238796     0.18770
F963        F  0.83091543  0.70130084  0.50849271    -0.14090
F964        F  0.75620127  0.72736783  0.45658450    -0.16450
F965        F  0.74360547  0.74214521  0.15610121    -0.16450
F966        F  0.66952680  0.76873023  0.10439083    -0.14090
C967        C  0.59600264  0.79637652  0.01234471     0.03460
C968        C  0.64704010  0.79786758  0.50550713    -0.12690
C969        C  0.66897589  0.75439006  0.50557595     0.00960
C970        C  0.64085056  0.70999607  0.50478925    -0.11220
C971        C  0.59008702  0.70653317  0.01452334     0.03450
C972        C  0.56694033  0.75014676  0.01798578    -0.10640
H973        H  0.66959200  0.83192870  0.50792387     0.09050
H974        H  0.65902814  0.67668940  0.50497847     0.06570
H975        H  0.52758801  0.74807304  0.02736075     0.06420
C976        C  0.90436300  0.67621178  0.61309747     0.03460
C977        C  0.85379034  0.67407617  0.61072883    -0.12690
C978        C  0.83103666  0.71695607  0.60769396     0.00960
C979        C  0.85696287  0.76170489  0.61195096    -0.11220
C980        C  0.90781101  0.76617702  0.61050488     0.03450
C981        C  0.93218567  0.72286883  0.61161856    -0.10640
H982        H  0.83311418  0.63979759  0.60526219     0.09050
H983        H  0.83789728  0.79442060  0.60928175     0.06570
H984        H  0.97191495  0.72551881  0.60840451     0.06420
C985        C  0.68858374  0.93505469  0.66015735     0.03460
C986        C  0.68689269  0.93414448  0.71113942    -0.12690
C987        C  0.73033547  0.93802675  0.73333114     0.00960
C988        C  0.77505609  0.93602933  0.70592675    -0.11220
C989        C  0.77880422  0.93947766  0.65506856     0.03450
C990        C  0.73509428  0.93877163  0.63149887    -0.10640
H991        H  0.65237751  0.93719302  0.73278664     0.09050
H992        H  0.80839418  0.93889465  0.72398492     0.06570
H993        H  0.73726359  0.94393497  0.59183455     0.06420
C994        C  0.81068960  0.53986983  0.96733043     0.03460
C995        C  0.81146875  0.54575426  0.91632240    -0.12690
C996        C  0.76743696  0.54313220  0.89501202     0.00960
C997        C  0.72317503  0.54336896  0.92385432    -0.11220
C998        C  0.72053504  0.53568754  0.97464365     0.03450
C999        C  0.76469806  0.53397123  0.49705023    -0.10640
H1000       H  0.84564784  0.54433681  0.89345729     0.09050
H1001       H  0.68933025  0.54171851  0.90656268     0.06570
H1002       H  0.76327047  0.52550792  0.53641381     0.06420
C1003       C  0.55170298  0.58282141  0.75452290     0.03460
C1004       C  0.55661812  0.63371294  0.75450666    -0.12690
C1005       C  0.55869915  0.65442406  0.79857581     0.00960
C1006       C  0.56318958  0.62561636  0.84153897    -0.11220
C1007       C  0.55277220  0.57508629  0.84413973     0.03530
C1008       C  0.54786639  0.55287751  0.80011604    -0.10640
H1009       H  0.55183505  0.65676163  0.72150579     0.09050
H1010       H  0.56472609  0.64311202  0.87521552     0.06570
H1011       H  0.53855582  0.51363989  0.80152342     0.06420
C1012       C  0.95039002  0.89139752  0.87453908     0.03460
C1013       C  0.95490658  0.84130681  0.87569355    -0.12690
C1014       C  0.95788651  0.81926959  0.83236691     0.00960
C1015       C  0.95085753  0.84485092  0.78844507    -0.11220
C1016       C  0.95120249  0.89554083  0.78461490     0.03450
C1017       C  0.95025836  0.91948057  0.82829177    -0.10640
H1018       H  0.96213110  0.82077781  0.90936838     0.09050
H1019       H  0.95309267  0.82588438  0.75557132     0.06570
H1020       H  0.95267076  0.95909463  0.82613777     0.06420
O1021       O  0.57991106  0.87850421  0.49032453    -0.86160
O1022       O  0.94167259  0.96008981  0.72302557    -0.86330
O1023       O  0.60700604  0.91144207  0.64177424    -0.87990
O1024       O  0.97186804  0.82791245  0.62076659    -0.86750
O1025       O  0.91121136  0.84785419  0.57310166    -0.86340
O1026       O  0.64133155  0.99125083  0.62300977    -0.87710
O1027       O  0.98891677  0.89905013  0.70308262    -0.86190
O1028       O  0.55905215  0.84356761  0.56967849    -0.85780
Zr1029     Zr  0.52314701  0.90506493  0.61593050     2.84310
O1030       O  0.94460098  0.93240033  0.61863399    -1.07750
O1031       O  0.57816169  0.96009395  0.56246945    -1.08480
C1032       C  0.57619125  0.84215472  0.52453897     1.06950
C1033       C  0.96135322  0.92052682  0.73389443     1.06890
C1034       C  0.64307178  0.94601652  0.63899206     1.09870
C1035       C  0.93255401  0.81702215  0.60060081     1.07650
H1036       H  0.53826431  0.97962746  0.67426943     0.33210
O1037       O  0.52625598  0.98301226  0.64251877    -1.28700
H1038       H  0.99249192  0.87666359  0.52504137     0.32880
O1039       O  0.99590569  0.90829380  0.53734718    -1.30380
O1040       O  0.92320335  0.59534201  0.63799269    -0.86150
O1041       O  0.55979603  0.51118228  0.90631079    -0.87650
O1042       O  0.57404437  0.56650325  0.67221408    -0.86230
O1043       O  0.84052869  0.93051521  0.59043242    -0.86280
O1044       O  0.92530591  0.91065290  0.95544680    -0.85990
O1045       O  0.65852221  0.54413427  0.53894194    -0.85800
O1046       O  0.52655642  0.64433713  0.50609643    -0.86170
O1047       O  0.89333103  0.56160358  0.98325285    -0.85630
O1048       O  0.58638411  0.62650626  0.55569491    -0.86690
O1049       O  0.85764752  0.98247281  0.50366400    -0.85850
O1050       O  0.99421876  0.54708952  0.70687264    -0.86250
O1051       O  0.64049364  0.99432283  0.97925866    -0.85970
O1052       O  0.00582611  0.92849459  0.92249234    -0.85620
O1053       O  0.86020853  0.97796018  0.65147546    -0.86030
O1054       O  0.94269695  0.62863237  0.55788686    -0.86330
O1055       O  0.01068685  0.57157955  0.92382621    -0.87670
Zr1056     Zr  0.94789638  0.51111474  0.64553353     2.83100
Zr1057     Zr  0.55292373  0.96165139  0.98421888     2.83500
Zr1058     Zr  0.58050407  0.53901284  0.58898913     2.84090
Zr1059     Zr  0.91818161  0.93539027  0.53976987     2.83360
Zr1060     Zr  0.97632965  0.56684966  0.51111937     2.84220
O1061       O  0.97426797  0.98867382  0.48563648    -1.08240
O1062       O  0.00238487  0.56486592  0.59017263    -1.07740
C1063       C  0.92642322  0.63097854  0.60302914     1.06920
C1064       C  0.53949183  0.54998418  0.89424141     1.09540
C1065       C  0.53952730  0.56351638  0.70844591     1.07090
C1066       C  0.82947667  0.95044996  0.62989586     1.07450
C1067       C  0.96047980  0.91318309  0.91991634     1.07040
C1068       C  0.67038530  0.52312941  0.50034813     1.06590
C1069       C  0.56511065  0.65625248  0.52699672     1.07010
C1070       C  0.85665708  0.52761118  0.98672114     1.06530
H1071       H  0.57812798  0.56322577  0.98719528     0.33210
O1072       O  0.55533968  0.54088405  0.50966855    -1.29340
H1073       H  0.89032204  0.52637937  0.57062384     0.33230
O1074       O  0.92189134  0.51388227  0.56741756    -1.30720
C1075       C  0.95937401  0.73000851  0.83671389     0.23930
C1076       C  0.98449890  0.77679772  0.82853662    -0.24180
C1077       C  0.53434274  0.78406212  0.80919270     0.18830
C1078       C  0.55893056  0.74423106  0.79771440     0.23870
C1079       C  0.53357457  0.69747141  0.80542142    -0.24130
C1080       C  0.98380550  0.69029926  0.82504398     0.18770
F1081       F  0.95923699  0.64459147  0.83317699    -0.14090
F1082       F  0.91116151  0.72316483  0.85460318    -0.16450
F1083       F  0.60700671  0.75103416  0.77934150    -0.16450
F1084       F  0.55845186  0.82992756  0.80020878    -0.14090
C1085       C  0.71806059  0.50852912  0.78029947     0.23930
C1086       C  0.73308080  0.96123260  0.77867612    -0.24180
C1087       C  0.76298962  0.94338825  0.81317660     0.18830
C1088       C  0.77860399  0.97264642  0.84814189     0.23870
C1089       C  0.76374385  0.52000787  0.84973994    -0.24130
C1090       C  0.73339389  0.53771575  0.81557206     0.18770
F1091       F  0.71743523  0.58271091  0.81751629    -0.14090
F1092       F  0.69068923  0.52752454  0.74618970    -0.16450
F1093       F  0.80618537  0.95358863  0.88203398    -0.16450
F1094       F  0.77867693  0.89824129  0.81157493    -0.14090
C1095       C  0.75347562  0.73167994  0.50549003     0.23930
C1096       C  0.71336522  0.75057021  0.52932297    -0.24180
C1097       C  0.70982867  0.75336275  0.58032270     0.18830
C1098       C  0.74653071  0.73793482  0.60716847     0.23870
C1099       C  0.78687820  0.71951063  0.58335676    -0.24130
C1100       C  0.79044301  0.71649980  0.53238798     0.18770
F1101       F  0.83091550  0.70130100  0.00849268    -0.14090
F1102       F  0.75620135  0.72736802  0.95658448    -0.16450
F1103       F  0.74360548  0.74214528  0.65610118    -0.16450
F1104       F  0.66952681  0.76873029  0.60439080    -0.14090
loop_ 
_geom_bond_atom_site_label_1 
_geom_bond_atom_site_label_2 
_geom_bond_distance 
_geom_bond_site_symmetry_2 
_ccdc_geom_bond_type 
C1            C6   1.424       .  A
C1          C140   1.394       .  A
C1          C204   1.476       .  S
C2            C3   1.392       .  A
C2          C139   1.394       .  A
C2            H7   1.085       .  S
C3            C4   1.386       .  A
C3          C130   1.449       .  S
C4          C143   1.388       .  A
C4            H8   1.087       .  S
C5            C6   1.420       .  A
C5          C142   1.388       .  A
C5          C241   1.480       .  S
C6            H9   1.083       .  S
C10          C11   1.395       .  A
C10          C15   1.427       .  A
C10          C97   1.475       .  S
C11          C12   1.389       .  A
C11          H16   1.086       .  S
C12          C13   1.385       .  A
C12         C133   1.448       .  S
C13          C14   1.389       .  A
C13          H17   1.086       .  S
C14          C15   1.424       .  A
C14          C69   1.486       .  S
C15          H18   1.083       .  S
C19          C20   1.398       .  A
C19          C24   1.425       .  A
C19          C68   1.477       .  S
C20          C21   1.394       .  A
C20          H25   1.085       .  S
C21          C22   1.387       .  A
C21         C120   1.460       .  S
C22          C23   1.387       .  A
C22          H26   1.085       .  S
C23          C24   1.421       .  A
C23         C100   1.485       .  S
C24          H27   1.083       .  S
C28          C29   1.396       .  A
C28         C171   1.424       .  A
C28         C104   1.476       .  S
C29          C30   1.396       .  A
C29          H34   1.085       .  S
C30          C31   1.388       .  A
C30         C123   1.460       .  S
C31          C32   1.388       .  A
C31          H35   1.086       .  S
C32         C171   1.418       .  A
C32         C240   1.481       .  S
C33         C166   1.424       .  A
C33         C170   1.418       .  A
C33          H36   1.083   1_556  S
C37          C38   1.396       .  A
C37          C42   1.425       .  A
C37          C99   1.476       .  S
C38          C39   1.392       .  A
C38          H43   1.085       .  S
C39          C40   1.384       .  A
C39         C113   1.447       .  S
C40          C41   1.388       .  A
C40          H44   1.087       .  S
C41          C42   1.420       .  A
C41          C98   1.479       .  S
C42          H45   1.083       .  S
C46          C47   1.396       .  A
C46          C51   1.427       .  A
C46         C101   1.475       .  S
C47          C48   1.387       .  A
C47          H52   1.086       .  S
C48          C49   1.382       .  A
C48         C110   1.446       .  S
C49          C50   1.390       .  A
C49          H53   1.086       .  S
C50          C51   1.424       .  A
C50          C67   1.486       .  S
C51          H54   1.083       .  S
O55          C66   1.298   1_556  A
O55        Zr229   2.472       .  S
O56          C67   1.287       .  A
O56        Zr366   2.424       .  S
O57          C68   1.299       .  A
O57         Zr63   2.475       .  S
O58          C69   1.286       .  A
O58        Zr615   2.421       .  S
O59          C69   1.305       .  A
O59         Zr93   2.482       .  S
O60          C68   1.289       .  A
O60        Zr368   2.431       .  S
O61          C67   1.304       .  A
O61        Zr615   2.474       .  S
O62          C66   1.291       .  A
O62         Zr63   2.439       .  S
Zr63        O610   2.421   1_455  S
Zr63        O613   2.474   1_455  S
Zr63         O65   2.336       .  S
Zr63         O71   2.330       .  S
Zr63        O616   2.353   1_455  S
Zr63        O625   2.355   1_455  S
O64         Zr93   2.353       .  S
O64        Zr615   2.353       .  S
O64        Zr366   2.353       .  S
O65        Zr229   2.325   1_554  S
O65        Zr368   2.355       .  S
C66         C139   1.476       .  S
H70          O71   0.964       .  S
O71        Zr918   2.357   1_455  S
O71        Zr368   2.341       .  S
H72          O73   0.964       .  S
O73         Zr93   2.329       .  S
O73        Zr615   2.355       .  S
O73        Zr781   2.337   1_554  S
O74          C97   1.299       .  A
O74         Zr90   2.477       .  S
O75          C98   1.285       .  A
O75        Zr367   2.413   1_545  S
O76          C99   1.299       .  A
O76         Zr92   2.475       .  S
O77         C100   1.286       .  A
O77         Zr93   2.419       .  S
O78         C101   1.299       .  A
O78        Zr231   2.475       .  S
O79         C102   1.286       .  A
O79         Zr92   2.419       .  S
O80         C103   1.285       .  A
O80        Zr646   2.414   1_455  S
O81         C104   1.299       .  A
O81        Zr232   2.475       .  S
O82         C103   1.304       .  A
O82         Zr92   2.482       .  S
O83         C518   1.291   1_554  A
O83         Zr93   2.438       .  S
O84         C651   1.291       .  A
O84         Zr90   2.439       .  S
O85         C516   1.303       .  A
O85         Zr91   2.475       .  S
O86         C101   1.289       .  A
O86        Zr643   2.428       .  S
O87         C100   1.305       .  A
O87        Zr366   2.480       .  S
O88          C97   1.289       .  A
O88         Zr94   2.428       .  S
O89         C650   1.304       .  A
O89        Zr232   2.481       .  S
Zr90        O332   2.424   1_545  S
Zr90        O363   2.480   1_545  S
Zr90         O96   2.338       .  S
Zr90        O108   2.329       .  S
Zr90        O340   2.353   1_545  S
Zr90        O899   2.357   1_545  S
Zr91        O193   2.472       .  S
Zr91        O351   2.413       .  S
Zr91        O638   2.428       .  S
Zr91        O203   2.325       .  S
Zr91        O763   2.337   1_455  S
Zr91        O785   2.353   1_455  S
Zr91        O520   2.352       .  S
Zr92        O336   2.431   1_545  S
Zr92        O106   2.352       .  S
Zr92        O341   2.355   1_545  S
Zr92        O347   2.341   1_545  S
Zr92        O648   2.327       .  S
Zr93        O216   2.475   1_554  S
Zr93         O95   2.337   1_554  S
Zr93        O384   2.356       .  S
Zr94        O632   2.414       .  S
Zr94        O219   2.475   1_554  S
Zr94        O227   2.481   1_554  S
Zr94         O96   2.355       .  S
Zr94        O108   2.340       .  S
Zr94        O371   2.325   1_544  S
Zr94        O658   2.351       .  S
O95        Zr781   2.353       .  S
O95        Zr370   2.325   1_556  S
O96        Zr644   2.327       .  S
C98         O641   1.304       .  A
C99         O636   1.291   1_455  A
C102        C170   1.481   1_554  S
C102        O499   1.303   1_544  A
C103        C143   1.480       .  S
C104        O497   1.291   1_545  A
H105        O244   0.966       .  S
O106       Zr505   2.352   1_544  S
O106       Zr646   2.351   1_455  S
O106        H243   0.966   1_554  S
H107        O108   0.964       .  S
O108       Zr369   2.356   1_545  S
C109        C110   1.391       .  A
C109        C114   1.385       .  A
C109        F116   1.358       .  S
C110        C663   1.410       .  A
C111        C112   1.389       .  A
C111        C662   1.410   1_455  A
C111        F118   1.359       .  S
C112        C113   1.392       .  A
C112        F117   1.358       .  S
C113        C666   1.410   1_455  A
C114        C665   1.410       .  A
C114        F115   1.359       .  S
C119        C124   1.389       .  A
C119        C396   1.408   1_545  A
C119        F126   1.359       .  S
C120        C121   1.402       .  A
C120        C395   1.408       .  A
C121        C122   1.386       .  A
C121        F128   1.359       .  S
C122        C399   1.408       .  A
C122        F127   1.359       .  S
C123        C124   1.402       .  A
C123        C398   1.408   1_545  A
C124        F125   1.359       .  S
C129        C130   1.397       .  A
C129        C134   1.389       .  A
C129        F274   1.358   1_554  S
C130        C131   1.408       .  A
C131        C132   1.385       .  A
C131        F138   1.359       .  S
C132        C133   1.396       .  A
C132        F137   1.358       .  S
C133        C134   1.408       .  A
C134        F273   1.359       .  S
F135        C272   1.359       .  S
F136        C267   1.358       .  S
C139        C144   1.424       .  A
C140        C141   1.392       .  A
C140        H145   1.085       .  S
C141        C142   1.386       .  A
C141        C268   1.449       .  S
C142        H146   1.087       .  S
C143        C144   1.420       .  A
C144        H147   1.083       .  S
C148        C149   1.395       .  A
C148        C153   1.427       .  A
C148        C235   1.475       .  S
C149        C150   1.389       .  A
C149        H154   1.086       .  S
C150        C151   1.385       .  A
C150        C271   1.448       .  S
C151        C152   1.389       .  A
C151        H155   1.086       .  S
C152        C153   1.424       .  A
C152        C207   1.486       .  S
C153        H156   1.083       .  S
C157        C158   1.398       .  A
C157        C162   1.425       .  A
C157        C206   1.477       .  S
C158        C159   1.394       .  A
C158        H163   1.085       .  S
C159        C160   1.387       .  A
C159        C258   1.460       .  S
C160        C161   1.387       .  A
C160        H164   1.085       .  S
C161        C162   1.421       .  A
C161        C238   1.485       .  S
C162        H165   1.083       .  S
C166        C167   1.396       .  A
C166        C242   1.476       .  S
C167        C168   1.396       .  A
C167        H172   1.085       .  S
C168        C169   1.388       .  A
C168        C261   1.460       .  S
C169        C170   1.388       .  A
C169        H173   1.086       .  S
C171        H174   1.083       .  S
C175        C176   1.396       .  A
C175        C180   1.425       .  A
C175        C237   1.476       .  S
C176        C177   1.392       .  A
C176        H181   1.085       .  S
C177        C178   1.384       .  A
C177        C251   1.447       .  S
C178        C179   1.388       .  A
C178        H182   1.087       .  S
C179        C180   1.420       .  A
C179        C236   1.479       .  S
C180        H183   1.083       .  S
C184        C185   1.396       .  A
C184        C189   1.427       .  A
C184        C239   1.475       .  S
C185        C186   1.387       .  A
C185        H190   1.086       .  S
C186        C187   1.382       .  A
C186        C248   1.446       .  S
C187        C188   1.390       .  A
C187        H191   1.086       .  S
C188        C189   1.424       .  A
C188        C205   1.486       .  S
C189        H192   1.083       .  S
O193        C204   1.298       .  A
O194        C205   1.287       .  A
O194       Zr504   2.424       .  S
O195        C206   1.299       .  A
O195       Zr201   2.475       .  S
O196        C207   1.286       .  A
O196       Zr753   2.421       .  S
O197        C207   1.305       .  A
O197       Zr231   2.482       .  S
O198        C206   1.289       .  A
O198       Zr506   2.431       .  S
O199        C205   1.304       .  A
O199       Zr753   2.474       .  S
O200        C204   1.291       .  A
O200       Zr201   2.439       .  S
Zr201       O748   2.421   1_455  S
Zr201       O751   2.474   1_455  S
Zr201       O754   2.353   1_455  S
Zr201       O203   2.336       .  S
Zr201       O763   2.355   1_455  S
Zr201       O209   2.330       .  S
O202       Zr753   2.353       .  S
O202       Zr504   2.353       .  S
O202       Zr231   2.353       .  S
O203       Zr506   2.355       .  S
H208        O209   0.964       .  S
O209      Zr1056   2.357   1_455  S
O209       Zr506   2.341       .  S
H210        O211   0.964       .  S
O211       Zr753   2.355       .  S
O211       Zr643   2.337       .  S
O211       Zr231   2.329       .  S
O212        C235   1.299       .  A
O212       Zr228   2.477       .  S
O213        C236   1.285       .  A
O213       Zr505   2.413   1_545  S
O214        C237   1.299       .  A
O214       Zr230   2.475       .  S
O215        C238   1.286       .  A
O215       Zr231   2.419       .  S
O216        C239   1.299       .  A
O217        C240   1.286       .  A
O217       Zr230   2.419       .  S
O218        C241   1.285       .  A
O218       Zr784   2.414   1_455  S
O219        C242   1.299       .  A
O220        C241   1.304       .  A
O220       Zr230   2.482       .  S
O221        C380   1.291       .  A
O221       Zr231   2.438       .  S
O222        C789   1.291       .  A
O222       Zr228   2.439       .  S
O223        C378   1.303   1_556  A
O223       Zr229   2.475       .  S
O224        C239   1.289       .  A
O224       Zr781   2.428       .  S
O225        C238   1.305       .  A
O225       Zr504   2.480       .  S
O226        C235   1.289       .  A
O226       Zr232   2.428       .  S
O227        C788   1.304       .  A
Zr228       O470   2.424   1_545  S
Zr228       O501   2.480   1_545  S
Zr228       O478   2.353   1_545  S
Zr228      O1037   2.357   1_545  S
Zr228       O234   2.338       .  S
Zr228       O246   2.329       .  S
Zr229       O489   2.413       .  S
Zr229       O776   2.428       .  S
Zr229       O625   2.337   1_456  S
Zr229       O647   2.353   1_455  S
Zr229       O382   2.352   1_556  S
Zr230       O474   2.431   1_545  S
Zr230       O479   2.355   1_545  S
Zr230       O485   2.341   1_545  S
Zr230       O786   2.327       .  S
Zr230       O244   2.352       .  S
Zr231       O233   2.337       .  S
Zr231       O522   2.356       .  S
Zr232       O770   2.414       .  S
Zr232       O509   2.325   1_545  S
Zr232       O234   2.355       .  S
Zr232       O246   2.340       .  S
Zr232       O796   2.351       .  S
O233       Zr643   2.353       .  S
O233       Zr508   2.325       .  S
O234       Zr782   2.327       .  S
C236        O779   1.304       .  A
C237        O774   1.291   1_455  A
C240        O361   1.303   1_545  A
C242        O359   1.291   1_546  A
O244       Zr367   2.352   1_545  S
O244       Zr784   2.351   1_455  S
H245        O246   0.964       .  S
O246       Zr507   2.356   1_545  S
C247        C248   1.391       .  A
C247        C252   1.385       .  A
C247        F254   1.358       .  S
C248        C801   1.410       .  A
C249        C800   1.410   1_455  A
C249        C250   1.389       .  A
C249        F256   1.359       .  S
C250        C251   1.392       .  A
C250        F255   1.358       .  S
C251        C804   1.410   1_455  A
C252        C803   1.410       .  A
C252        F253   1.359       .  S
C257        C534   1.408   1_545  A
C257        C262   1.389       .  A
C257        F264   1.359       .  S
C258        C533   1.408       .  A
C258        C259   1.402       .  A
C259        C260   1.386       .  A
C259        F266   1.359       .  S
C260        C537   1.408       .  A
C260        F265   1.359       .  S
C261        C536   1.408   1_545  A
C261        C262   1.402       .  A
C262        F263   1.359       .  S
C267        C268   1.397       .  A
C267        C272   1.389       .  A
C268        C269   1.408       .  A
C269        C270   1.385       .  A
C269        F276   1.359       .  S
C270        C271   1.396       .  A
C270        F275   1.358       .  S
C271        C272   1.408       .  A
C277        C416   1.394       .  A
C277        C282   1.424       .  A
C277        C480   1.476       .  S
C278        C415   1.394       .  A
C278        C279   1.392       .  A
C278        H283   1.085       .  S
C279        C280   1.386       .  A
C279        C406   1.449       .  S
C280        C419   1.388       .  A
C280        H284   1.087       .  S
C281        C418   1.388       .  A
C281        C282   1.420       .  A
C281        C517   1.480       .  S
C282        H285   1.083       .  S
C286        C287   1.395       .  A
C286        C291   1.427       .  A
C286        C373   1.475       .  S
C287        C288   1.389       .  A
C287        H292   1.086       .  S
C288        C289   1.385       .  A
C288        C409   1.448       .  S
C289        C290   1.389       .  A
C289        H293   1.086       .  S
C290        C291   1.424       .  A
C290        C345   1.486       .  S
C291        H294   1.083       .  S
C295        C296   1.398       .  A
C295        C300   1.425       .  A
C295        C344   1.477       .  S
C296        C297   1.394       .  A
C296        H301   1.085       .  S
C297        C298   1.387       .  A
C297        C396   1.460       .  S
C298        C299   1.387       .  A
C298        H302   1.085       .  S
C299        C300   1.421       .  A
C299        C376   1.485       .  S
C300        H303   1.083       .  S
C304        C305   1.396       .  A
C304        C447   1.424       .  A
C304        C380   1.476       .  S
C305        C306   1.396       .  A
C305        H310   1.085       .  S
C306        C307   1.388       .  A
C306        C399   1.460       .  S
C307        C308   1.388       .  A
C307        H311   1.086       .  S
C308        C447   1.418       .  A
C308        C516   1.481       .  S
C309        C442   1.424       .  A
C309        C446   1.418       .  A
C309        H312   1.083   1_556  S
C313        C314   1.396       .  A
C313        C318   1.425       .  A
C313        C375   1.476       .  S
C314        C315   1.392       .  A
C314        H319   1.085       .  S
C315        C316   1.384       .  A
C315        C389   1.447       .  S
C316        C317   1.388       .  A
C316        H320   1.087       .  S
C317        C318   1.420       .  A
C317        C374   1.479       .  S
C318        H321   1.083       .  S
C322        C323   1.396       .  A
C322        C327   1.427       .  A
C322        C377   1.475       .  S
C323        C324   1.387       .  A
C323        H328   1.086       .  S
C324        C325   1.382       .  A
C324        C386   1.446       .  S
C325        C326   1.390       .  A
C325        H329   1.086       .  S
C326        C327   1.424       .  A
C326        C343   1.486       .  S
C327        H330   1.083       .  S
O331        C342   1.298   1_556  A
O331       Zr505   2.472       .  S
O332        C343   1.287       .  A
O333        C344   1.299       .  A
O333       Zr339   2.475       .  S
O334        C345   1.286       .  A
O334       Zr891   2.421       .  S
O335        C345   1.305       .  A
O335       Zr369   2.482       .  S
O336        C344   1.289       .  A
O337        C343   1.304       .  A
O337       Zr891   2.474       .  S
O338        C342   1.291       .  A
O338       Zr339   2.439       .  S
Zr339       O886   2.421   1_455  S
Zr339       O889   2.474   1_455  S
Zr339       O892   2.353   1_455  S
Zr339       O341   2.336       .  S
Zr339       O901   2.355   1_455  S
Zr339       O347   2.330       .  S
O340       Zr891   2.353       .  S
O340       Zr369   2.353       .  S
O341       Zr505   2.325   1_554  S
C342        C415   1.476       .  S
H346        O347   0.964       .  S
O347       Zr642   2.357   1_465  S
H348        O349   0.964       .  S
O349       Zr891   2.355       .  S
O349      Zr1057   2.337   1_554  S
O349       Zr369   2.329       .  S
O350        C373   1.299       .  A
O350       Zr366   2.477       .  S
O351        C374   1.285       .  A
O352        C375   1.299       .  A
O352       Zr368   2.475       .  S
O353        C376   1.286       .  A
O353       Zr369   2.419       .  S
O354        C377   1.299       .  A
O354       Zr507   2.475       .  S
O355        C378   1.286       .  A
O355       Zr368   2.419       .  S
O356        C379   1.285       .  A
O356       Zr922   2.414   1_455  S
O357        C380   1.299       .  A
O357       Zr508   2.475       .  S
O358        C379   1.304       .  A
O358       Zr368   2.482       .  S
O359       Zr369   2.438       .  S
O360        C927   1.291       .  A
O360       Zr366   2.439       .  S
O361       Zr367   2.475       .  S
O362        C377   1.289       .  A
O362       Zr919   2.428       .  S
O363        C376   1.305       .  A
O364        C373   1.289       .  A
O364       Zr370   2.428       .  S
O365        C926   1.304       .  A
O365       Zr508   2.481       .  S
Zr366       O623   2.357       .  S
Zr366       O372   2.338       .  S
Zr366       O384   2.329       .  S
Zr367       O469   2.472       .  S
Zr367       O914   2.428       .  S
Zr367       O479   2.325       .  S
Zr367      O1039   2.337   1_455  S
Zr367      O1061   2.353   1_455  S
Zr368       O924   2.327       .  S
Zr368       O382   2.352       .  S
Zr369       O492   2.475   1_554  S
Zr369       O371   2.337   1_554  S
Zr370       O908   2.414       .  S
Zr370       O495   2.475   1_554  S
Zr370       O503   2.481   1_554  S
Zr370       O372   2.355       .  S
Zr370       O384   2.340       .  S
Zr370       O934   2.351       .  S
O371      Zr1057   2.353       .  S
O372       Zr920   2.327       .  S
C374        O917   1.304       .  A
C375        O912   1.291   1_455  A
C378        C446   1.481   1_554  S
C379        C419   1.480       .  S
H381        O520   0.966       .  S
O382       Zr922   2.351   1_455  S
O382        H519   0.966   1_554  S
H383        O384   0.964       .  S
C385        C386   1.391       .  A
C385        C390   1.385       .  A
C385        F392   1.358       .  S
C386        C939   1.410       .  A
C387        C938   1.410   1_455  A
C387        C388   1.389       .  A
C387        F394   1.359       .  S
C388        C389   1.392       .  A
C388        F393   1.358       .  S
C389        C942   1.410   1_455  A
C390        C941   1.410       .  A
C390        F391   1.359       .  S
C395        C400   1.389       .  A
C395        F402   1.359       .  S
C396        C397   1.402       .  A
C397        C398   1.386       .  A
C397        F404   1.359       .  S
C398        F403   1.359       .  S
C399        C400   1.402       .  A
C400        F401   1.359       .  S
C405        C406   1.397       .  A
C405        C410   1.389       .  A
C405        F550   1.358   1_554  S
C406        C407   1.408       .  A
C407        C408   1.385       .  A
C407        F414   1.359       .  S
C408        C409   1.396       .  A
C408        F413   1.358       .  S
C409        C410   1.408       .  A
C410        F549   1.359       .  S
F411        C548   1.359       .  S
F412        C543   1.358       .  S
C415        C420   1.424       .  A
C416        C417   1.392       .  A
C416        H421   1.085       .  S
C417        C418   1.386       .  A
C417        C544   1.449       .  S
C418        H422   1.087       .  S
C419        C420   1.420       .  A
C420        H423   1.083       .  S
C424        C425   1.395       .  A
C424        C429   1.427       .  A
C424        C511   1.475       .  S
C425        C426   1.389       .  A
C425        H430   1.086       .  S
C426        C427   1.385       .  A
C426        C547   1.448       .  S
C427        C428   1.389       .  A
C427        H431   1.086       .  S
C428        C429   1.424       .  A
C428        C483   1.486       .  S
C429        H432   1.083       .  S
C433        C434   1.398       .  A
C433        C438   1.425       .  A
C433        C482   1.477       .  S
C434        C435   1.394       .  A
C434        H439   1.085       .  S
C435        C436   1.387       .  A
C435        C534   1.460       .  S
C436        C437   1.387       .  A
C436        H440   1.085       .  S
C437        C438   1.421       .  A
C437        C514   1.485       .  S
C438        H441   1.083       .  S
C442        C443   1.396       .  A
C442        C518   1.476       .  S
C443        C444   1.396       .  A
C443        H448   1.085       .  S
C444        C445   1.388       .  A
C444        C537   1.460       .  S
C445        C446   1.388       .  A
C445        H449   1.086       .  S
C447        H450   1.083       .  S
C451        C452   1.396       .  A
C451        C456   1.425       .  A
C451        C513   1.476       .  S
C452        C453   1.392       .  A
C452        H457   1.085       .  S
C453        C454   1.384       .  A
C453        C527   1.447       .  S
C454        C455   1.388       .  A
C454        H458   1.087       .  S
C455        C456   1.420       .  A
C455        C512   1.479       .  S
C456        H459   1.083       .  S
C460        C461   1.396       .  A
C460        C465   1.427       .  A
C460        C515   1.475       .  S
C461        C462   1.387       .  A
C461        H466   1.086       .  S
C462        C463   1.382       .  A
C462        C524   1.446       .  S
C463        C464   1.390       .  A
C463        H467   1.086       .  S
C464        C465   1.424       .  A
C464        C481   1.486       .  S
C465        H468   1.083       .  S
O469        C480   1.298       .  A
O470        C481   1.287       .  A
O471        C482   1.299       .  A
O471       Zr477   2.475       .  S
O472        C483   1.286       .  A
O472      Zr1029   2.421       .  S
O473        C483   1.305       .  A
O473       Zr507   2.482       .  S
O474        C482   1.289       .  A
O475        C481   1.304       .  A
O475      Zr1029   2.474       .  S
O476        C480   1.291       .  A
O476       Zr477   2.439       .  S
Zr477      O1024   2.421   1_455  S
Zr477      O1027   2.474   1_455  S
Zr477      O1030   2.353   1_455  S
Zr477       O479   2.336       .  S
Zr477      O1039   2.355   1_455  S
Zr477       O485   2.330       .  S
O478      Zr1029   2.353       .  S
O478       Zr507   2.353       .  S
H484        O485   0.964       .  S
O485       Zr780   2.357   1_465  S
H486        O487   0.964       .  S
O487      Zr1029   2.355       .  S
O487       Zr919   2.337       .  S
O487       Zr507   2.329       .  S
O488        C511   1.299       .  A
O488       Zr504   2.477       .  S
O489        C512   1.285       .  A
O490        C513   1.299       .  A
O490       Zr506   2.475       .  S
O491        C514   1.286       .  A
O491       Zr507   2.419       .  S
O492        C515   1.299       .  A
O493        C516   1.286       .  A
O493       Zr506   2.419       .  S
O494        C517   1.285       .  A
O494      Zr1060   2.414   1_455  S
O495        C518   1.299       .  A
O496        C517   1.304       .  A
O496       Zr506   2.482       .  S
O497       Zr507   2.438       .  S
O498       C1065   1.291       .  A
O498       Zr504   2.439       .  S
O499       Zr505   2.475       .  S
O500        C515   1.289       .  A
O500      Zr1057   2.428       .  S
O501        C514   1.305       .  A
O502        C511   1.289       .  A
O502       Zr508   2.428       .  S
O503       C1064   1.304       .  A
Zr504       O761   2.357       .  S
Zr504       O510   2.338       .  S
Zr504       O522   2.329       .  S
Zr505      O1052   2.428       .  S
Zr505       O901   2.337   1_456  S
Zr505       O923   2.353   1_455  S
Zr506      O1062   2.327       .  S
Zr506       O520   2.352       .  S
Zr507       O509   2.337       .  S
Zr508      O1046   2.414       .  S
Zr508       O510   2.355       .  S
Zr508       O522   2.340       .  S
Zr508      O1072   2.351       .  S
O509       Zr919   2.353       .  S
O510      Zr1058   2.327       .  S
C512       O1055   1.304       .  A
C513       O1050   1.291   1_455  A
O520      Zr1060   2.351   1_455  S
H521        O522   0.964       .  S
C523        C524   1.391       .  A
C523        C528   1.385       .  A
C523        F530   1.358       .  S
C524       C1077   1.410       .  A
C525       C1076   1.410   1_455  A
C525        C526   1.389       .  A
C525        F532   1.359       .  S
C526        C527   1.392       .  A
C526        F531   1.358       .  S
C527       C1080   1.410   1_455  A
C528       C1079   1.410       .  A
C528        F529   1.359       .  S
C533        C538   1.389       .  A
C533        F540   1.359       .  S
C534        C535   1.402       .  A
C535        C536   1.386       .  A
C535        F542   1.359       .  S
C536        F541   1.359       .  S
C537        C538   1.402       .  A
C538        F539   1.359       .  S
C543        C544   1.397       .  A
C543        C548   1.389       .  A
C544        C545   1.408       .  A
C545        C546   1.385       .  A
C545        F552   1.359       .  S
C546        C547   1.396       .  A
C546        F551   1.358       .  S
C547        C548   1.408       .  A
C553        C692   1.394       .  A
C553        C558   1.424       .  A
C553        C756   1.476       .  S
C554        C691   1.394       .  A
C554        C555   1.392       .  A
C554        H559   1.085       .  S
C555        C556   1.386       .  A
C555        C682   1.449       .  S
C556        C695   1.388       .  A
C556        H560   1.087       .  S
C557        C694   1.388       .  A
C557        C558   1.420       .  A
C557        C793   1.480       .  S
C558        H561   1.083       .  S
C562        C563   1.395       .  A
C562        C567   1.427       .  A
C562        C649   1.475       .  S
C563        C564   1.389       .  A
C563        H568   1.086       .  S
C564        C565   1.385       .  A
C564        C685   1.448       .  S
C565        C566   1.389       .  A
C565        H569   1.086       .  S
C566        C567   1.424       .  A
C566        C621   1.486       .  S
C567        H570   1.083       .  S
C571        C572   1.398       .  A
C571        C576   1.425       .  A
C571        C620   1.477       .  S
C572        C573   1.394       .  A
C572        H577   1.085       .  S
C573        C574   1.387       .  A
C573        C672   1.460       .  S
C574        C575   1.387       .  A
C574        H578   1.085       .  S
C575        C576   1.421       .  A
C575        C652   1.485       .  S
C576        H579   1.083       .  S
C580        C581   1.396       .  A
C580        C723   1.424       .  A
C580        C656   1.476       .  S
C581        C582   1.396       .  A
C581        H586   1.085       .  S
C582        C583   1.388       .  A
C582        C675   1.460       .  S
C583        C584   1.388       .  A
C583        H587   1.086       .  S
C584        C723   1.418       .  A
C584        C792   1.481       .  S
C585        C718   1.424       .  A
C585        C722   1.418       .  A
C585        H588   1.083   1_556  S
C589        C590   1.396       .  A
C589        C594   1.425       .  A
C589        C651   1.476       .  S
C590        C591   1.392       .  A
C590        H595   1.085       .  S
C591        C592   1.384       .  A
C591        C665   1.447       .  S
C592        C593   1.388       .  A
C592        H596   1.087       .  S
C593        C594   1.420       .  A
C593        C650   1.479       .  S
C594        H597   1.083       .  S
C598        C599   1.396       .  A
C598        C603   1.427       .  A
C598        C653   1.475       .  S
C599        C600   1.387       .  A
C599        H604   1.086       .  S
C600        C601   1.382       .  A
C600        C662   1.446       .  S
C601        C602   1.390       .  A
C601        H605   1.086       .  S
C602        C603   1.424       .  A
C602        C619   1.486       .  S
C603        H606   1.083       .  S
O607        C618   1.298   1_556  A
O607       Zr781   2.472       .  S
O608        C619   1.287       .  A
O608       Zr918   2.424       .  S
O609        C620   1.299       .  A
O609       Zr615   2.475       .  S
O610        C621   1.286       .  A
O611        C621   1.305       .  A
O611       Zr645   2.482       .  S
O612        C620   1.289       .  A
O612       Zr920   2.431       .  S
O613        C619   1.304       .  A
O614        C618   1.291       .  A
O614       Zr615   2.439       .  S
Zr615       O617   2.336       .  S
Zr615       O623   2.330       .  S
O616       Zr918   2.353       .  S
O616       Zr645   2.353       .  S
O617       Zr781   2.325   1_554  S
O617       Zr920   2.355       .  S
C618        C691   1.476       .  S
H622        O623   0.964       .  S
O623       Zr920   2.341       .  S
H624        O625   0.964       .  S
O625       Zr645   2.329       .  S
O626        C649   1.299       .  A
O626       Zr642   2.477       .  S
O627        C650   1.285       .  A
O627       Zr919   2.413   1_545  S
O628        C651   1.299       .  A
O628       Zr644   2.475       .  S
O629        C652   1.286       .  A
O629       Zr645   2.419       .  S
O630        C653   1.299       .  A
O630       Zr783   2.475       .  S
O631        C654   1.286       .  A
O631       Zr644   2.419       .  S
O632        C655   1.285       .  A
O633        C656   1.299       .  A
O633       Zr784   2.475       .  S
O634        C655   1.304       .  A
O634       Zr644   2.482       .  S
O635       C1070   1.291   1_554  A
O635       Zr645   2.438       .  S
O636       Zr642   2.439       .  S
O637       C1068   1.303       .  A
O637       Zr643   2.475       .  S
O638        C653   1.289   1_455  A
O639        C652   1.305       .  A
O639       Zr918   2.480       .  S
O640        C649   1.289       .  A
O640       Zr646   2.428       .  S
O641       Zr784   2.481   1_455  S
Zr642       O884   2.424   1_545  S
Zr642       O915   2.480   1_545  S
Zr642       O892   2.353   1_545  S
Zr642       O648   2.338   1_655  S
Zr642       O660   2.329       .  S
Zr643       O745   2.472       .  S
Zr643       O903   2.413       .  S
Zr643       O755   2.325       .  S
Zr643      O1072   2.352       .  S
Zr644       O888   2.431   1_545  S
Zr644       O893   2.355   1_545  S
Zr644       O899   2.341   1_545  S
Zr644       O658   2.352       .  S
Zr645       O768   2.475   1_554  S
Zr645       O647   2.337   1_554  S
Zr645       O936   2.356       .  S
Zr646       O771   2.475   1_554  S
Zr646       O779   2.481   1_654  S
Zr646       O923   2.325   1_544  S
Zr646       O648   2.355   1_655  S
Zr646       O660   2.340       .  S
O647       Zr922   2.325   1_556  S
C654        C722   1.481   1_554  S
C654       O1051   1.303   1_544  A
C655        C695   1.480       .  S
C656       O1049   1.291   1_545  A
H657        O796   0.966       .  S
O658      Zr1057   2.352   1_544  S
O658        H795   0.966   1_554  S
H659        O660   0.964       .  S
O660       Zr921   2.356   1_545  S
C661        C662   1.391       .  A
C661        C666   1.385       .  A
C661        F668   1.358       .  S
C663        C664   1.389       .  A
C663        F670   1.359       .  S
C664        C665   1.392       .  A
C664        F669   1.358       .  S
C666        F667   1.359       .  S
C671        C948   1.408   1_545  A
C671        C676   1.389       .  A
C671        F678   1.359       .  S
C672        C947   1.408       .  A
C672        C673   1.402       .  A
C673        C674   1.386       .  A
C673        F680   1.359       .  S
C674        C951   1.408       .  A
C674        F679   1.359       .  S
C675        C950   1.408   1_545  A
C675        C676   1.402       .  A
C676        F677   1.359       .  S
C681        C682   1.397       .  A
C681        C686   1.389       .  A
C681        F826   1.358   1_554  S
C682        C683   1.408       .  A
C683        C684   1.385       .  A
C683        F690   1.359       .  S
C684        C685   1.396       .  A
C684        F689   1.358       .  S
C685        C686   1.408       .  A
C686        F825   1.359       .  S
F687        C824   1.359       .  S
F688        C819   1.358       .  S
C691        C696   1.424       .  A
C692        C693   1.392       .  A
C692        H697   1.085       .  S
C693        C694   1.386       .  A
C693        C820   1.449       .  S
C694        H698   1.087       .  S
C695        C696   1.420       .  A
C696        H699   1.083       .  S
C700        C701   1.395       .  A
C700        C705   1.427       .  A
C700        C787   1.475       .  S
C701        C702   1.389       .  A
C701        H706   1.086       .  S
C702        C703   1.385       .  A
C702        C823   1.448       .  S
C703        C704   1.389       .  A
C703        H707   1.086       .  S
C704        C705   1.424       .  A
C704        C759   1.486       .  S
C705        H708   1.083       .  S
C709        C710   1.398       .  A
C709        C714   1.425       .  A
C709        C758   1.477       .  S
C710        C711   1.394       .  A
C710        H715   1.085       .  S
C711        C712   1.387       .  A
C711        C810   1.460       .  S
C712        C713   1.387       .  A
C712        H716   1.085       .  S
C713        C714   1.421       .  A
C713        C790   1.485       .  S
C714        H717   1.083       .  S
C718        C719   1.396       .  A
C718        C794   1.476       .  S
C719        C720   1.396       .  A
C719        H724   1.085       .  S
C720        C721   1.388       .  A
C720        C813   1.460       .  S
C721        C722   1.388       .  A
C721        H725   1.086       .  S
C723        H726   1.083       .  S
C727        C728   1.396       .  A
C727        C732   1.425       .  A
C727        C789   1.476       .  S
C728        C729   1.392       .  A
C728        H733   1.085       .  S
C729        C730   1.384       .  A
C729        C803   1.447       .  S
C730        C731   1.388       .  A
C730        H734   1.087       .  S
C731        C732   1.420       .  A
C731        C788   1.479       .  S
C732        H735   1.083       .  S
C736        C737   1.396       .  A
C736        C741   1.427       .  A
C736        C791   1.475       .  S
C737        C738   1.387       .  A
C737        H742   1.086       .  S
C738        C739   1.382       .  A
C738        C800   1.446       .  S
C739        C740   1.390       .  A
C739        H743   1.086       .  S
C740        C741   1.424       .  A
C740        C757   1.486       .  S
C741        H744   1.083       .  S
O745        C756   1.298       .  A
O746        C757   1.287       .  A
O746      Zr1056   2.424       .  S
O747        C758   1.299       .  A
O747       Zr753   2.475       .  S
O748        C759   1.286       .  A
O749        C759   1.305       .  A
O749       Zr783   2.482       .  S
O750        C758   1.289       .  A
O750      Zr1058   2.431       .  S
O751        C757   1.304       .  A
O752        C756   1.291       .  A
O752       Zr753   2.439       .  S
Zr753       O755   2.336       .  S
Zr753       O761   2.330       .  S
O754      Zr1056   2.353       .  S
O754       Zr783   2.353       .  S
O755      Zr1058   2.355       .  S
H760        O761   0.964       .  S
O761      Zr1058   2.341       .  S
H762        O763   0.964       .  S
O763       Zr783   2.329       .  S
O764        C787   1.299       .  A
O764       Zr780   2.477       .  S
O765        C788   1.285       .  A
O765      Zr1057   2.413   1_545  S
O766        C789   1.299       .  A
O766       Zr782   2.475       .  S
O767        C790   1.286       .  A
O767       Zr783   2.419       .  S
O768        C791   1.299       .  A
O769        C792   1.286       .  A
O769       Zr782   2.419       .  S
O770        C793   1.285       .  A
O771        C794   1.299       .  A
O772        C793   1.304       .  A
O772       Zr782   2.482       .  S
O773        C932   1.291       .  A
O773       Zr783   2.438       .  S
O774       Zr780   2.439       .  S
O775        C930   1.303   1_556  A
O775       Zr781   2.475       .  S
O776        C791   1.289   1_455  A
O777        C790   1.305       .  A
O777      Zr1056   2.480       .  S
O778        C787   1.289       .  A
O778       Zr784   2.428       .  S
Zr780      O1022   2.424   1_545  S
Zr780      O1053   2.480   1_545  S
Zr780      O1030   2.353   1_545  S
Zr780       O786   2.338   1_655  S
Zr780       O798   2.329       .  S
Zr781      O1041   2.413       .  S
Zr781       O934   2.352   1_556  S
Zr782      O1026   2.431   1_545  S
Zr782      O1031   2.355   1_545  S
Zr782      O1037   2.341   1_545  S
Zr782       O796   2.352       .  S
Zr783       O785   2.337       .  S
Zr783      O1074   2.356       .  S
Zr784      O1061   2.325   1_545  S
Zr784       O786   2.355   1_655  S
Zr784       O798   2.340       .  S
O785      Zr1060   2.325       .  S
C792        O913   1.303   1_545  A
C794        O911   1.291   1_546  A
O796       Zr919   2.352   1_545  S
H797        O798   0.964       .  S
O798      Zr1059   2.356   1_545  S
C799        C800   1.391       .  A
C799        C804   1.385       .  A
C799        F806   1.358       .  S
C801        C802   1.389       .  A
C801        F808   1.359       .  S
C802        C803   1.392       .  A
C802        F807   1.358       .  S
C804        F805   1.359       .  S
C809       C1086   1.408   1_545  A
C809        C814   1.389       .  A
C809        F816   1.359       .  S
C810       C1085   1.408       .  A
C810        C811   1.402       .  A
C811        C812   1.386       .  A
C811        F818   1.359       .  S
C812       C1089   1.408       .  A
C812        F817   1.359       .  S
C813       C1088   1.408   1_545  A
C813        C814   1.402       .  A
C814        F815   1.359       .  S
C819        C820   1.397       .  A
C819        C824   1.389       .  A
C820        C821   1.408       .  A
C821        C822   1.385       .  A
C821        F828   1.359       .  S
C822        C823   1.396       .  A
C822        F827   1.358       .  S
C823        C824   1.408       .  A
C829        C968   1.394       .  A
C829        C834   1.424       .  A
C829       C1032   1.476       .  S
C830        C967   1.394       .  A
C830        C831   1.392       .  A
C830        H835   1.085       .  S
C831        C832   1.386       .  A
C831        C958   1.449       .  S
C832        C971   1.388       .  A
C832        H836   1.087       .  S
C833        C970   1.388       .  A
C833        C834   1.420       .  A
C833       C1069   1.480       .  S
C834        H837   1.083       .  S
C838        C839   1.395       .  A
C838        C843   1.427       .  A
C838        C925   1.475       .  S
C839        C840   1.389       .  A
C839        H844   1.086       .  S
C840        C841   1.385       .  A
C840        C961   1.448       .  S
C841        C842   1.389       .  A
C841        H845   1.086       .  S
C842        C843   1.424       .  A
C842        C897   1.486       .  S
C843        H846   1.083       .  S
C847        C848   1.398       .  A
C847        C852   1.425       .  A
C847        C896   1.477       .  S
C848        C849   1.394       .  A
C848        H853   1.085       .  S
C849        C850   1.387       .  A
C849        C948   1.460       .  S
C850        C851   1.387       .  A
C850        H854   1.085       .  S
C851        C852   1.421       .  A
C851        C928   1.485       .  S
C852        H855   1.083       .  S
C856        C857   1.396       .  A
C856        C999   1.424       .  A
C856        C932   1.476       .  S
C857        C858   1.396       .  A
C857        H862   1.085       .  S
C858        C859   1.388       .  A
C858        C951   1.460       .  S
C859        C860   1.388       .  A
C859        H863   1.086       .  S
C860        C999   1.418       .  A
C860       C1068   1.481       .  S
C861        C994   1.424       .  A
C861        C998   1.418       .  A
C861        H864   1.083   1_556  S
C865        C866   1.396       .  A
C865        C870   1.425       .  A
C865        C927   1.476       .  S
C866        C867   1.392       .  A
C866        H871   1.085       .  S
C867        C868   1.384       .  A
C867        C941   1.447       .  S
C868        C869   1.388       .  A
C868        H872   1.087       .  S
C869        C870   1.420       .  A
C869        C926   1.479       .  S
C870        H873   1.083       .  S
C874        C875   1.396       .  A
C874        C879   1.427       .  A
C874        C929   1.475       .  S
C875        C876   1.387       .  A
C875        H880   1.086       .  S
C876        C877   1.382       .  A
C876        C938   1.446       .  S
C877        C878   1.390       .  A
C877        H881   1.086       .  S
C878        C879   1.424       .  A
C878        C895   1.486       .  S
C879        H882   1.083       .  S
O883        C894   1.298   1_556  A
O883      Zr1057   2.472       .  S
O884        C895   1.287       .  A
O885        C896   1.299       .  A
O885       Zr891   2.475       .  S
O886        C897   1.286       .  A
O887        C897   1.305       .  A
O887       Zr921   2.482       .  S
O888        C896   1.289       .  A
O889        C895   1.304       .  A
O890        C894   1.291       .  A
O890       Zr891   2.439       .  S
Zr891       O893   2.336       .  S
Zr891       O899   2.330       .  S
O892       Zr921   2.353       .  S
O893      Zr1057   2.325   1_554  S
C894        C967   1.476       .  S
H898        O899   0.964       .  S
H900        O901   0.964       .  S
O901       Zr921   2.329       .  S
O902        C925   1.299       .  A
O902       Zr918   2.477       .  S
O903        C926   1.285       .  A
O904        C927   1.299       .  A
O904       Zr920   2.475       .  S
O905        C928   1.286       .  A
O905       Zr921   2.419       .  S
O906        C929   1.299       .  A
O906      Zr1059   2.475       .  S
O907        C930   1.286       .  A
O907       Zr920   2.419       .  S
O908        C931   1.285       .  A
O909        C932   1.299       .  A
O909      Zr1060   2.475       .  S
O910        C931   1.304       .  A
O910       Zr920   2.482       .  S
O911       Zr921   2.438       .  S
O912       Zr918   2.439       .  S
O913       Zr919   2.475       .  S
O914        C929   1.289   1_455  A
O915        C928   1.305       .  A
O916        C925   1.289       .  A
O916       Zr922   2.428       .  S
O917      Zr1060   2.481   1_455  S
Zr918       O924   2.338   1_655  S
Zr918       O936   2.329       .  S
Zr919      O1021   2.472       .  S
Zr919      O1031   2.325       .  S
Zr920       O934   2.352       .  S
Zr921      O1044   2.475   1_554  S
Zr921       O923   2.337   1_554  S
Zr922      O1047   2.475   1_554  S
Zr922      O1055   2.481   1_654  S
Zr922       O924   2.355   1_655  S
Zr922       O936   2.340       .  S
C930        C998   1.481   1_554  S
C931        C971   1.480       .  S
H933       O1072   0.966       .  S
O934       H1071   0.966   1_554  S
H935        O936   0.964       .  S
C937        C938   1.391       .  A
C937        C942   1.385       .  A
C937        F944   1.358       .  S
C939        C940   1.389       .  A
C939        F946   1.359       .  S
C940        C941   1.392       .  A
C940        F945   1.358       .  S
C942        F943   1.359       .  S
C947        C952   1.389       .  A
C947        F954   1.359       .  S
C948        C949   1.402       .  A
C949        C950   1.386       .  A
C949        F956   1.359       .  S
C950        F955   1.359       .  S
C951        C952   1.402       .  A
C952        F953   1.359       .  S
C957        C958   1.397       .  A
C957        C962   1.389       .  A
C957       F1102   1.358   1_554  S
C958        C959   1.408       .  A
C959        C960   1.385       .  A
C959        F966   1.359       .  S
C960        C961   1.396       .  A
C960        F965   1.358       .  S
C961        C962   1.408       .  A
C962       F1101   1.359       .  S
F963       C1100   1.359       .  S
F964       C1095   1.358       .  S
C967        C972   1.424       .  A
C968        C969   1.392       .  A
C968        H973   1.085       .  S
C969        C970   1.386       .  A
C969       C1096   1.449       .  S
C970        H974   1.087       .  S
C971        C972   1.420       .  A
C972        H975   1.083       .  S
C976        C977   1.395       .  A
C976        C981   1.427       .  A
C976       C1063   1.475       .  S
C977        C978   1.389       .  A
C977        H982   1.086       .  S
C978        C979   1.385       .  A
C978       C1099   1.448       .  S
C979        C980   1.389       .  A
C979        H983   1.086       .  S
C980        C981   1.424       .  A
C980       C1035   1.486       .  S
C981        H984   1.083       .  S
C985        C986   1.398       .  A
C985        C990   1.425       .  A
C985       C1034   1.477       .  S
C986        C987   1.394       .  A
C986        H991   1.085       .  S
C987        C988   1.387       .  A
C987       C1086   1.460       .  S
C988        C989   1.387       .  A
C988        H992   1.085       .  S
C989        C990   1.421       .  A
C989       C1066   1.485       .  S
C990        H993   1.083       .  S
C994        C995   1.396       .  A
C994       C1070   1.476       .  S
C995        C996   1.396       .  A
C995       H1000   1.085       .  S
C996        C997   1.388       .  A
C996       C1089   1.460       .  S
C997        C998   1.388       .  A
C997       H1001   1.086       .  S
C999       H1002   1.083       .  S
C1003      C1004   1.396       .  A
C1003      C1008   1.425       .  A
C1003      C1065   1.476       .  S
C1004      C1005   1.392       .  A
C1004      H1009   1.085       .  S
C1005      C1006   1.384       .  A
C1005      C1079   1.447       .  S
C1006      C1007   1.388       .  A
C1006      H1010   1.087       .  S
C1007      C1008   1.420       .  A
C1007      C1064   1.479       .  S
C1008      H1011   1.083       .  S
C1012      C1013   1.396       .  A
C1012      C1017   1.427       .  A
C1012      C1067   1.475       .  S
C1013      C1014   1.387       .  A
C1013      H1018   1.086       .  S
C1014      C1015   1.382       .  A
C1014      C1076   1.446       .  S
C1015      C1016   1.390       .  A
C1015      H1019   1.086       .  S
C1016      C1017   1.424       .  A
C1016      C1033   1.486       .  S
C1017      H1020   1.083       .  S
O1021      C1032   1.298       .  A
O1022      C1033   1.287       .  A
O1023      C1034   1.299       .  A
O1023     Zr1029   2.475       .  S
O1024      C1035   1.286       .  A
O1025      C1035   1.305       .  A
O1025     Zr1059   2.482       .  S
O1026      C1034   1.289       .  A
O1027      C1033   1.304       .  A
O1028      C1032   1.291       .  A
O1028     Zr1029   2.439       .  S
Zr1029     O1031   2.336       .  S
Zr1029     O1037   2.330       .  S
O1030     Zr1059   2.353       .  S
H1036      O1037   0.964       .  S
H1038      O1039   0.964       .  S
O1039     Zr1059   2.329       .  S
O1040      C1063   1.299       .  A
O1040     Zr1056   2.477       .  S
O1041      C1064   1.285       .  A
O1042      C1065   1.299       .  A
O1042     Zr1058   2.475       .  S
O1043      C1066   1.286       .  A
O1043     Zr1059   2.419       .  S
O1044      C1067   1.299       .  A
O1045      C1068   1.286       .  A
O1045     Zr1058   2.419       .  S
O1046      C1069   1.285       .  A
O1047      C1070   1.299       .  A
O1048      C1069   1.304       .  A
O1048     Zr1058   2.482       .  S
O1049     Zr1059   2.438       .  S
O1050     Zr1056   2.439       .  S
O1051     Zr1057   2.475       .  S
O1052      C1067   1.289   1_455  A
O1053      C1066   1.305       .  A
O1054      C1063   1.289       .  A
O1054     Zr1060   2.428       .  S
Zr1056     O1062   2.338   1_655  S
Zr1056     O1074   2.329       .  S
Zr1058     O1072   2.352       .  S
Zr1059     O1061   2.337       .  S
Zr1060     O1062   2.355   1_655  S
Zr1060     O1074   2.340       .  S
H1073      O1074   0.964       .  S
C1075      C1076   1.391       .  A
C1075      C1080   1.385       .  A
C1075      F1082   1.358       .  S
C1077      C1078   1.389       .  A
C1077      F1084   1.359       .  S
C1078      C1079   1.392       .  A
C1078      F1083   1.358       .  S
C1080      F1081   1.359       .  S
C1085      C1090   1.389       .  A
C1085      F1092   1.359       .  S
C1086      C1087   1.402       .  A
C1087      C1088   1.386       .  A
C1087      F1094   1.359       .  S
C1088      F1093   1.359       .  S
C1089      C1090   1.402       .  A
C1090      F1091   1.359       .  S
C1095      C1096   1.397       .  A
C1095      C1100   1.389       .  A
C1096      C1097   1.408       .  A
C1097      C1098   1.385       .  A
C1097      F1104   1.359       .  S
C1098      C1099   1.396       .  A
C1098      F1103   1.358       .  S
C1099      C1100   1.408       .  A
