geometry optimzed in LAMMPS
_audit_creation_date              2020-11-30 
_audit_creation_method            'lammps2cif' 
_symmetry_space_group_name_H-M    'P1' 
_symmetry_Int_Tables_number       1 
_symmetry_cell_setting            triclinic 
loop_ 
_symmetry_equiv_pos_as_xyz 
  x,y,z 
_cell_length_a                    31.87706216649418 
_cell_length_b                    31.88284530899108 
_cell_length_c                    52.17149029956623 
_cell_angle_alpha                 90.76473665942703 
_cell_angle_beta                  89.4904622538373 
_cell_angle_gamma                 91.33410707092919 
loop_ 
_atom_site_label 
_atom_site_type_symbol 
_atom_site_fract_x 
_atom_site_fract_y 
_atom_site_fract_z 
_atom_site_charge 
N1          N  0.19968614  0.19067252  0.16457080    -0.06280
N2          N  0.16714855  0.19165810  0.18015735    -0.58400
N3          N  0.28093056  0.23273201  0.13232737    -0.05960
N4          N  0.30172827  0.26892297  0.13298147    -0.60530
N5          N  0.24461484  0.23664229  0.12107396    -0.05560
N6          N  0.23993964  0.27574568  0.11376441    -0.58380
N7          N  0.23480546  0.18588636  0.17706057    -0.05240
N8          N  0.22636557  0.18285324  0.20196589    -0.60880
C9          C  0.18394540  0.18713898  0.20340228     0.95900
C10         C  0.27619983  0.29524238  0.12089974     0.95670
N11         N  0.35724854  0.12869804  0.11876994    -0.06470
N12         N  0.39691595  0.12265439  0.11278712    -0.58980
N13         N  0.30950484  0.12401102  0.17628087    -0.04590
N14         N  0.32243151  0.12798736  0.19987419    -0.60230
N15         N  0.32000846  0.08777100  0.16617398    -0.06500
N16         N  0.34124552  0.06631517  0.18341556    -0.59250
N17         N  0.35325494  0.16450856  0.13158300    -0.04230
N18         N  0.39070172  0.18278856  0.13465532    -0.60320
Mn19       Mn  0.29474051  0.17743802  0.15446837     1.18440
C20         C  0.41747188  0.15672360  0.12233384     0.97980
C21         C  0.34161056  0.09202794  0.20459516     0.98640
N22         N  0.19438918  0.18019171  0.08274471    -0.06520
N23         N  0.19293576  0.21161731  0.06683869    -0.62820
N24         N  0.15276192  0.09964572  0.11586070    -0.05320
N25         N  0.11600911  0.07957150  0.11480071    -0.63500
N26         N  0.14847365  0.13679713  0.12663044    -0.06020
N27         N  0.10915634  0.14241965  0.13347587    -0.63090
N28         N  0.19882282  0.14417277  0.07051974    -0.04920
N29         N  0.20080627  0.15090848  0.04544818    -0.63780
Mn30       Mn  0.19643594  0.18657899  0.12364564     1.10660
C31         C  0.19669238  0.19322417  0.04372562     0.99200
C32         C  0.08922340  0.10648153  0.12622779     0.99280
N33         N  0.26206329  0.03054063  0.13001160    -0.06030
N34         N  0.27144899  0.99327003  0.13819680    -0.61400
N35         N  0.26389420  0.07203595  0.07060571    -0.05350
N36         N  0.25928103  0.05332313  0.04818173    -0.58130
N37         N  0.30076254  0.06454083  0.08060026    -0.06660
N38         N  0.32125653  0.03890668  0.06463020    -0.60970
N39         N  0.22631750  0.02952703  0.11739574    -0.05650
N40         N  0.21207776  0.99000229  0.11609578    -0.58160
Mn41       Mn  0.31067024  0.07760327  0.12357256     1.20190
Mn42       Mn  0.20950061  0.08579767  0.09341815     1.10090
Cl43       Cl  0.25328814  0.13163173  0.12351499    -0.86130
C44         C  0.24069474  0.96780894  0.12936423     0.96210
C45         C  0.29499283  0.03292215  0.04423748     0.96000
N46         N  0.27314115  0.53831520  0.11685965    -0.06280
N47         N  0.27825003  0.50012962  0.10770338    -0.58400
N48         N  0.20213798  0.59979669  0.14147677    -0.05960
N49         N  0.16321283  0.59916763  0.15049054    -0.60530
N50         N  0.20204069  0.60102661  0.11621406    -0.05560
N51         N  0.16314188  0.60075275  0.10768028    -0.58380
N52         N  0.27579448  0.53881909  0.14191940    -0.05240
N53         N  0.28246128  0.50063142  0.15030040    -0.60880
C54         C  0.28435373  0.47667418  0.12862291     0.95900
C55         C  0.13905953  0.59983938  0.12923543     0.95670
N56         N  0.27321873  0.68733117  0.18413558    -0.06470
N57         N  0.26287158  0.71246169  0.20363059    -0.58980
N58         N  0.32348367  0.59769744  0.18397675    -0.04590
N59         N  0.33916457  0.57447575  0.20244247    -0.60230
N60         N  0.34817523  0.63070881  0.18054742    -0.06500
N61         N  0.38086104  0.63019967  0.19523699    -0.59250
N62         N  0.24751664  0.65440387  0.18367140    -0.04230
N63         N  0.21912311  0.65689418  0.20200162    -0.60320
Mn64       Mn  0.26183897  0.59648017  0.16335987     1.18440
C65         C  0.22834740  0.69329564  0.21421068     0.97980
C66         C  0.37578057  0.59520442  0.20876218     0.98640
N67         N  0.25229322  0.65064081  0.06918611    -0.06520
N68         N  0.23971395  0.65390320  0.04494919    -0.62820
N69         N  0.34274530  0.61878568  0.06848393    -0.05320
N70         N  0.35575849  0.61133650  0.04435277    -0.63500
N71         N  0.32158218  0.58563403  0.07643575    -0.06020
N72         N  0.32429073  0.55455082  0.06008666    -0.63090
N73         N  0.27459097  0.68436867  0.07501706    -0.04920
N74         N  0.27434275  0.71163659  0.05679899    -0.63780
Mn75       Mn  0.26116914  0.59387384  0.09433736     1.10660
C76         C  0.25355948  0.69310787  0.03767131     0.99200
C77         C  0.34364012  0.57035854  0.03946934     0.99280
N78         N  0.39215658  0.67899056  0.13816628    -0.06030
N79         N  0.43038187  0.67403155  0.14711847    -0.61400
N80         N  0.31893123  0.73771522  0.11329100    -0.05350
N81         N  0.30438995  0.77241688  0.10347666    -0.58130
N82         N  0.31606858  0.73931525  0.13839271    -0.06660
N83         N  0.29979847  0.77497631  0.14629356    -0.60970
N84         N  0.39220084  0.67396147  0.11310077    -0.05650
N85         N  0.43027015  0.66574530  0.10444746    -0.58160
Mn86       Mn  0.33264226  0.68547978  0.16064838     1.20190
Mn87       Mn  0.33348814  0.67897073  0.09219622     1.10090
Cl88       Cl  0.29708345  0.63868371  0.12776701    -0.86130
C89         C  0.45380337  0.66591288  0.12591362     0.96210
C90         C  0.29253992  0.79520693  0.12424838     0.96000
N91         N  0.85014572  0.12621618  0.13735386    -0.06280
N92         N  0.88838382  0.11708075  0.14469895    -0.58400
N93         N  0.78970953  0.19989426  0.11395943    -0.05960
N94         N  0.79133660  0.23806508  0.10427238    -0.60530
N95         N  0.79022896  0.20185830  0.13924153    -0.05560
N96         N  0.79267155  0.24163366  0.14707000    -0.58380
N97         N  0.84759847  0.12381689  0.11219498    -0.05240
N98         N  0.88400222  0.11374403  0.10193031    -0.60880
C99         C  0.90893154  0.10908697  0.12242348     0.95900
C100        C  0.79287050  0.26388699  0.12503048     0.95670
N101        N  0.70049822  0.12733338  0.07223622    -0.06470
N102        N  0.67487171  0.13897064  0.05364057    -0.58980
N103        N  0.78763309  0.07929623  0.06946062    -0.04590
N104        N  0.80054395  0.07322674  0.04543025    -0.60230
N105        N  0.75808489  0.05116090  0.07485674    -0.06500
N106        N  0.75270580  0.02443332  0.05590033    -0.59250
N107        N  0.73295589  0.15352786  0.07310372    -0.04230
N108        N  0.73021720  0.18271142  0.05580982    -0.60320
Mn109      Mn  0.79041461  0.13944843  0.09210760     1.18440
C110        C  0.69374293  0.17440323  0.04387277     0.97980
C111        C  0.77828483  0.03863118  0.03742021     0.98640
N112        N  0.73965658  0.15322204  0.18782248    -0.06520
N113        N  0.74063418  0.15762135  0.21324031    -0.62820
N114        N  0.76869742  0.06087241  0.18717974    -0.05320
N115        N  0.77621477  0.03699557  0.20746741    -0.63500
N116        N  0.80133454  0.08611135  0.18338797    -0.06020
N117        N  0.83100426  0.07986516  0.20021195    -0.63090
N118        N  0.70384562  0.13432493  0.18173879    -0.04920
N119        N  0.67826507  0.13269443  0.20144047    -0.63780
Mn120      Mn  0.79582277  0.14312655  0.16198073     1.10660
C121        C  0.70177330  0.14456109  0.22132187     0.99200
C122        C  0.81579906  0.04885013  0.21511895     0.99280
N123        N  0.70938874  0.00987759  0.11912921    -0.06030
N124        N  0.71587565  0.97107626  0.11088029    -0.61400
N125        N  0.64928379  0.08706200  0.14342855    -0.05350
N126        N  0.61391589  0.10324344  0.15228189    -0.58130
N127        N  0.64848125  0.08542731  0.11832124    -0.06660
N128        N  0.61288260  0.09959837  0.10965366    -0.60970
N129        N  0.71225067  0.01180085  0.14424704    -0.05650
N130        N  0.72036227  0.97448135  0.15355560    -0.58160
Mn131      Mn  0.70314762  0.06796701  0.09605180     1.20190
Mn132      Mn  0.70812296  0.07259141  0.16446090     1.10090
Cl133      Cl  0.74946049  0.10577020  0.12864305    -0.86130
C134        C  0.72246360  0.94910964  0.13254540     0.96210
C135        C  0.59124353  0.11096154  0.13091490     0.96000
N136        N  0.81495646  0.66449270  0.07551761    -0.06280
N137        N  0.81779609  0.69540730  0.05924118    -0.58400
N138        N  0.78150530  0.56424269  0.07001235    -0.05960
N139        N  0.78047792  0.53746377  0.05089652    -0.60530
N140        N  0.75174479  0.59202567  0.06842213    -0.05560
N141        N  0.73021054  0.58458787  0.04703409    -0.58380
N142        N  0.84403651  0.63649827  0.07111614    -0.05240
N143        N  0.86568314  0.64774972  0.05014728    -0.60880
C144        C  0.84914918  0.68524007  0.04327322     0.95900
C145        C  0.74870116  0.55003395  0.03674438     0.95670
N146        N  0.82094746  0.50813365  0.13523497    -0.06470
N147        N  0.81433116  0.46895954  0.14248747    -0.58980
N148        N  0.89355480  0.58186951  0.11447576    -0.04590
N149        N  0.93283952  0.58749063  0.10679733    -0.60230
N150        N  0.89156638  0.57651513  0.13939712    -0.06500
N151        N  0.92974792  0.57907839  0.14923287    -0.59250
N152        N  0.82572690  0.51026086  0.11019416    -0.04230
N153        N  0.82201627  0.47199597  0.09988707    -0.60320
Mn154      Mn  0.83723364  0.57319833  0.09123651     1.18440
C155        C  0.81485500  0.44658632  0.12032045     0.97980
C156        C  0.95528190  0.58592904  0.12865692     0.98640
N157        N  0.69613847  0.63635726  0.11430828    -0.06520
N158        N  0.65753315  0.63626745  0.10521545    -0.62820
N159        N  0.76357936  0.70559885  0.14354799    -0.05320
N160        N  0.76163301  0.74392169  0.15355521    -0.63500
N161        N  0.76257928  0.70717928  0.11836231    -0.06020
N162        N  0.76062044  0.74653824  0.11087328    -0.63090
N163        N  0.69528157  0.63685988  0.13954784    -0.04920
N164        N  0.65617888  0.63664086  0.14808380    -0.63780
Mn165      Mn  0.75561239  0.64982192  0.09390739     1.10660
C166        C  0.63295770  0.63579244  0.12652515     0.99200
C167        C  0.76029778  0.76941600  0.13294043     0.99280
N168        N  0.84074430  0.62094788  0.18104136    -0.06030
N169        N  0.86800712  0.61986252  0.19947521    -0.61400
N170        N  0.74050472  0.58499029  0.18011801    -0.05350
N171        N  0.70830411  0.57770390  0.19534878    -0.58130
N172        N  0.76744923  0.55440411  0.18065271    -0.06660
N173        N  0.75331705  0.52548274  0.19714217    -0.60970
N174        N  0.81100078  0.64778433  0.18627379    -0.05650
N175        N  0.81613644  0.66244661  0.21005569    -0.58160
Mn176      Mn  0.83012177  0.56412724  0.15935885     1.20190
Mn177      Mn  0.75281649  0.64468765  0.16265357     1.10090
Cl178      Cl  0.79394168  0.60795318  0.12674967    -0.86130
C179        C  0.85228907  0.64467881  0.21776739     0.96210
C180        C  0.71569085  0.54043899  0.20582759     0.96000
N181        N  0.20366152  0.31540491  0.91952406    -0.06280
N182        N  0.20242662  0.28568204  0.93658207    -0.58400
N183        N  0.15023864  0.38337604  0.88561640    -0.05960
N184        N  0.11200411  0.39839783  0.88438370    -0.60530
N185        N  0.15003169  0.34465902  0.87665292    -0.05560
N186        N  0.11242724  0.33286373  0.86927536    -0.58380
N187        N  0.20544898  0.35300408  0.93031247    -0.05240
N188        N  0.20543251  0.34892415  0.95569096    -0.60880
C189        C  0.20355356  0.30647239  0.95897513     0.95900
C190        C  0.08870723  0.36645701  0.87379955     0.95670
N191        N  0.24571529  0.47071960  0.86313762    -0.06470
N192        N  0.24859893  0.50952118  0.85474567    -0.58980
N193        N  0.26441492  0.43604101  0.92204881    -0.04590
N194        N  0.26767072  0.45184046  0.94532881    -0.60230
N195        N  0.29854346  0.44484797  0.90863364    -0.06500
N196        N  0.32588727  0.46658151  0.92306053    -0.59250
N197        N  0.21225821  0.46594081  0.87813168    -0.04230
N198        N  0.19260342  0.50224240  0.88022939    -0.60320
Mn199      Mn  0.20683852  0.41019564  0.90465792     1.18440
C200        C  0.21539963  0.52917903  0.86526012     0.97980
C201        C  0.30625490  0.47031420  0.94625583     0.98640
N202        N  0.20063040  0.29186562  0.83783669    -0.06520
N203        N  0.16809303  0.28583922  0.82264800    -0.62820
N204        N  0.28981496  0.27002066  0.86941785    -0.05320
N205        N  0.31745539  0.24036338  0.87209275    -0.63500
N206        N  0.25559081  0.26159945  0.88246961    -0.06020
N207        N  0.25906780  0.22571309  0.89447463    -0.63090
N208        N  0.23491690  0.29839565  0.82435483    -0.04920
N209        N  0.22656165  0.29706527  0.79958816    -0.63780
Mn210      Mn  0.20171967  0.30288535  0.87925125     1.10660
C211        C  0.18483138  0.28837014  0.79876237     0.99200
C212        C  0.29815531  0.21288753  0.88804414     0.99280
N213        N  0.34989674  0.38659227  0.87187816    -0.06030
N214        N  0.38741807  0.39566597  0.88078025    -0.61400
N215        N  0.29274957  0.37313555  0.81777152    -0.05350
N216        N  0.30375460  0.36417244  0.79424547    -0.58130
N217        N  0.30433863  0.41154617  0.82446855    -0.06660
N218        N  0.32744244  0.42783458  0.80544497    -0.60970
N219        N  0.34746058  0.34772670  0.86326232    -0.05650
N220        N  0.38353213  0.32934027  0.86625792    -0.58160
Mn221      Mn  0.30016322  0.42947726  0.86657581     1.20190
Mn222      Mn  0.29185286  0.32216380  0.84356389     1.10090
Cl223      Cl  0.24989308  0.36666315  0.87351565    -0.86130
C224        C  0.40797434  0.35966515  0.87717658     0.96210
C225        C  0.32552807  0.39776266  0.78650247     0.96000
N226        N  0.30005139  0.79399230  0.90576770    -0.06280
N227        N  0.31942776  0.76489277  0.91915552    -0.58400
N228        N  0.21468000  0.77756436  0.87516728    -0.05960
N229        N  0.19452796  0.74079605  0.87782867    -0.60530
N230        N  0.24682987  0.77292192  0.85930937    -0.05560
N231        N  0.24814068  0.73392749  0.85068789    -0.58380
N232        N  0.26749053  0.80692836  0.91902731    -0.05240
N233        N  0.26376620  0.78815342  0.94097846    -0.60880
C234        C  0.29580924  0.76216143  0.94109371     0.95900
C235        C  0.21551191  0.71379023  0.86213738     0.95670
N236        N  0.15969853  0.89807755  0.87730552    -0.06470
N237        N  0.12369506  0.90582761  0.86646622    -0.58980
N238        N  0.22138543  0.88855390  0.92995020    -0.04590
N239        N  0.23908794  0.88903273  0.95295858    -0.60230
N240        N  0.21968785  0.92724033  0.92151441    -0.06500
N241        N  0.23610184  0.95415788  0.93830248    -0.59250
N242        N  0.16046978  0.85901076  0.88470453    -0.04230
N243        N  0.12509843  0.83906977  0.87905235    -0.60320
Mn244      Mn  0.21459655  0.83327642  0.90260147     1.18440
C245        C  0.10297968  0.86854077  0.86726729     0.97980
C246        C  0.24805236  0.93027948  0.95792270     0.98640
N247        N  0.30623687  0.83205357  0.82268359    -0.06520
N248        N  0.31787392  0.81211981  0.80130899    -0.62820
N249        N  0.36053017  0.89316981  0.86274747    -0.05320
N250        N  0.39992426  0.90727219  0.86488213    -0.63500
N251        N  0.35830700  0.85348149  0.86970290    -0.06020
N252        N  0.39516596  0.84031930  0.87666120    -0.63090
N253        N  0.30204861  0.87194915  0.81758536    -0.04920
N254        N  0.30748302  0.87940165  0.79327218    -0.63780
Mn255      Mn  0.30368561  0.81237288  0.86393499     1.10660
C256        C  0.31745867  0.84245884  0.78301065     0.99200
C257        C  0.42105808  0.87386378  0.87393936     0.99280
N258        N  0.26777798  0.98241100  0.88418547    -0.06030
N259        N  0.26864492  0.01973478  0.89518380    -0.61400
N260        N  0.24600637  0.94507714  0.82588723    -0.05350
N261        N  0.23652303  0.94453900  0.80121065    -0.58130
N262        N  0.21197294  0.95115515  0.83962237    -0.06660
N263        N  0.17911432  0.95534168  0.82466062    -0.60970
N264        N  0.30272943  0.97580136  0.87156048    -0.05650
N265        N  0.32806128  0.00917164  0.87343636    -0.58160
Mn266      Mn  0.21338923  0.94048062  0.88093774     1.20190
Mn267      Mn  0.30420793  0.92248012  0.84447138     1.10090
Cl268      Cl  0.25942727  0.87680299  0.87295558    -0.86130
C269        C  0.30657878  0.03619393  0.88873121     0.96210
C270        C  0.19461002  0.95147426  0.80049404     0.96000
N271        N  0.69220299  0.27646569  0.90699999    -0.06280
N272        N  0.68903416  0.24443630  0.92296641    -0.58400
N273        N  0.64497368  0.35613132  0.87727418    -0.05960
N274        N  0.60814220  0.37346253  0.87778380    -0.60530
N275        N  0.64343247  0.31995752  0.86507256    -0.05560
N276        N  0.60515591  0.31162848  0.85694439    -0.58380
N277        N  0.69127716  0.31222896  0.91989559    -0.05240
N278        N  0.68751293  0.30522792  0.94467772    -0.60880
C279        C  0.68623833  0.26291218  0.94657697     0.95900
C280        C  0.58398460  0.34569120  0.86475576     0.95670
N281        N  0.73854229  0.44790722  0.87074000    -0.06470
N282        N  0.73918498  0.48808063  0.86520402    -0.58980
N283        N  0.74748774  0.39225714  0.92504457    -0.04590
N284        N  0.73914494  0.40635452  0.94812324    -0.60230
N285        N  0.78170615  0.41020844  0.91575920    -0.06500
N286        N  0.79607954  0.43833509  0.93276954    -0.59250
N287        N  0.70307012  0.43697190  0.88223832    -0.04230
N288        N  0.67901246  0.47015870  0.88492753    -0.60320
Mn289      Mn  0.69635529  0.37429832  0.90107553     1.18440
C290        C  0.70168626  0.50152806  0.87363971     0.97980
C291        C  0.76911776  0.43521442  0.95318020     0.98640
N292        N  0.70098088  0.28757076  0.82240670    -0.06520
N293        N  0.66902544  0.29634900  0.80749560    -0.62820
N294        N  0.78600654  0.24848842  0.85258537    -0.05320
N295        N  0.81139871  0.21621686  0.85055402    -0.63500
N296        N  0.75028220  0.23659560  0.86325658    -0.06020
N297        N  0.75065180  0.19624096  0.86876854    -0.63090
N298        N  0.73646417  0.30040157  0.81165190    -0.04920
N299        N  0.72858083  0.31807779  0.78939195    -0.63780
Mn300      Mn  0.69636654  0.27841696  0.86441516     1.10660
C301        C  0.68623938  0.31521082  0.78665250     0.99200
C302        C  0.78922266  0.18396279  0.86120326     0.99280
N303        N  0.84417668  0.36477820  0.87558600    -0.06030
N304        N  0.88102797  0.37489043  0.88507245    -0.61400
N305        N  0.80318748  0.37268119  0.81767435    -0.05350
N306        N  0.82110869  0.37708198  0.79501409    -0.58130
N307        N  0.80516410  0.40816096  0.83085358    -0.06660
N308        N  0.82540973  0.43720862  0.81712260    -0.60970
N309        N  0.84624158  0.33037155  0.86132201    -0.05650
N310        N  0.88523568  0.31731342  0.86080177    -0.58160
Mn311      Mn  0.79291385  0.40823852  0.87320791     1.20190
Mn312      Mn  0.79362097  0.31173670  0.83541602     1.10090
Cl313      Cl  0.74540632  0.34298840  0.86869369    -0.86130
C314        C  0.90670902  0.34525125  0.87594401     0.96210
C315        C  0.83436592  0.41741221  0.79454789     0.96000
N316        N  0.73114348  0.91524515  0.91037447    -0.06280
N317        N  0.71781569  0.94546062  0.92605558    -0.58400
N318        N  0.80626058  0.93955986  0.87274081    -0.05960
N319        N  0.82852550  0.97546692  0.87280160    -0.60530
N320        N  0.77033068  0.94512235  0.86113107    -0.05560
N321        N  0.76761655  0.98399827  0.85319508    -0.58380
N322        N  0.76511083  0.89913679  0.92003503    -0.05240
N323        N  0.77391735  0.91572702  0.94241143    -0.60880
C324        C  0.74519657  0.94507974  0.94598572     0.95900
C325        C  0.80417815  0.00287739  0.86007152     0.95670
N326        N  0.86629969  0.82119587  0.86179581    -0.06470
N327        N  0.90459718  0.81373958  0.85329098    -0.58980
N328        N  0.82554865  0.82293244  0.91985292    -0.04590
N329        N  0.83495667  0.81959528  0.94452361    -0.60230
N330        N  0.82355304  0.78535552  0.90916871    -0.06500
N331        N  0.83170727  0.75607613  0.92587713    -0.59250
N332        N  0.86428188  0.86009652  0.87022279    -0.04230
N333        N  0.90015283  0.88014372  0.86702972    -0.60320
Mn334      Mn  0.81575825  0.88052214  0.89586828     1.18440
C335        C  0.92520001  0.85104785  0.85670325     0.97980
C336        C  0.83919863  0.77759171  0.94783946     0.98640
N337        N  0.70272478  0.89100272  0.82666680    -0.06520
N338        N  0.68097555  0.91276740  0.80988984    -0.62820
N339        N  0.66062456  0.82381590  0.86607536    -0.05320
N340        N  0.62051247  0.81154880  0.86662752    -0.63500
N341        N  0.66423154  0.86164301  0.87656524    -0.06020
N342        N  0.62759343  0.87532840  0.88431367    -0.63090
N343        N  0.70704470  0.85259353  0.81766407    -0.04920
N344        N  0.69078618  0.84806284  0.79483241    -0.63780
Mn345      Mn  0.71674942  0.90367778  0.86855792     1.10660
C346        C  0.67463330  0.88536207  0.78986387     0.99200
C347        C  0.60049240  0.84398094  0.87833170     0.99280
N348        N  0.75844131  0.73420252  0.87464757    -0.06030
N349        N  0.75794348  0.69506014  0.88277513    -0.61400
N350        N  0.76818555  0.77934742  0.81674668    -0.05350
N351        N  0.77378969  0.78318565  0.79162510    -0.58130
N352        N  0.80399994  0.77032272  0.82740820    -0.06660
N353        N  0.83407672  0.76720147  0.81006530    -0.60970
N354        N  0.72172038  0.74319916  0.86508078    -0.05650
N355        N  0.69576046  0.71042439  0.86640755    -0.58160
Mn356      Mn  0.81345174  0.77667968  0.86837743     1.20190
Mn357      Mn  0.71375950  0.79889460  0.84140019     1.10090
Cl358      Cl  0.76468233  0.83992087  0.86870047    -0.86130
C359        C  0.71845070  0.68071275  0.87776991     0.96210
C360        C  0.81493052  0.77439770  0.78770299     0.96000
N361        N  0.96097311  0.44014231  0.66813950    -0.06280
N362        N  0.92915363  0.44367791  0.68429062    -0.58400
N363        N  0.04325067  0.48321713  0.63687699    -0.05960
N364        N  0.06578320  0.51836800  0.63659014    -0.60530
N365        N  0.00723370  0.48800717  0.62529973    -0.05560
N366        N  0.00452085  0.52667678  0.61692130    -0.58380
N367        N  0.99635418  0.43572258  0.68048091    -0.05240
N368        N  0.98892032  0.43613669  0.70555647    -0.60880
C369        C  0.94671387  0.44140921  0.70766694     0.95900
C370        C  0.04164077  0.54485736  0.62363153     0.95670
N371        N  0.11785643  0.38033997  0.62191647    -0.06470
N372        N  0.15626246  0.37592556  0.61321771    -0.58980
N373        N  0.06905099  0.36974189  0.67858323    -0.04590
N374        N  0.07981006  0.36830521  0.70275735    -0.60230
N375        N  0.07608720  0.33381578  0.66686918    -0.06500
N376        N  0.09203726  0.30728381  0.68338454    -0.59250
N377        N  0.11484856  0.41523826  0.63555043    -0.04230
N378        N  0.15219293  0.43448466  0.63689386    -0.60320
Mn379      Mn  0.05634237  0.42679676  0.65833079     1.18440
C380        C  0.17766534  0.40958438  0.62258244     0.97980
C381        C  0.09387926  0.32925963  0.70597298     0.98640
N382        N  0.95554730  0.43573889  0.58437223    -0.06520
N383        N  0.94828011  0.46630606  0.56834087    -0.62820
N384        N  0.91693311  0.35124958  0.61547564    -0.05320
N385        N  0.88423530  0.32562003  0.61859346    -0.63500
N386        N  0.91141322  0.38686135  0.62775143    -0.06020
N387        N  0.87486817  0.38609418  0.63954993    -0.63090
N388        N  0.96023423  0.40018568  0.57182881    -0.04920
N389        N  0.95608617  0.40600208  0.54695863    -0.63780
Mn390      Mn  0.95797236  0.43868496  0.62631410     1.10660
C391        C  0.94840400  0.44751886  0.54490655     0.99200
C392        C  0.85819960  0.34756807  0.63402602     0.99280
N393        N  0.02235452  0.28045673  0.62580016    -0.06030
N394        N  0.02544426  0.24232385  0.63483307    -0.61400
N395        N  0.03016017  0.33312226  0.57058792    -0.05350
N396        N  0.03097638  0.32247223  0.54622577    -0.58130
N397        N  0.06610589  0.32525986  0.58150411    -0.06660
N398        N  0.09172540  0.30767698  0.56452308    -0.60970
N399        N  0.98646179  0.28446535  0.61396779    -0.05650
N400        N  0.96425239  0.24901682  0.61496795    -0.58160
Mn401      Mn  0.07133121  0.32924835  0.62405281     1.20190
Mn402      Mn  0.97288097  0.34180318  0.59250184     1.10090
Cl403      Cl  0.01476881  0.38415235  0.62530189    -0.86130
C404        C  0.98883282  0.22301198  0.62824693     0.96210
C405        C  0.06926160  0.30646604  0.54248771     0.96000
N406        N  0.95550196  0.82561136  0.66566584    -0.06280
N407        N  0.93244995  0.79982074  0.68011627    -0.58400
N408        N  0.92152426  0.90793419  0.63759613    -0.05960
N409        N  0.88659546  0.92916018  0.63928917    -0.60530
N410        N  0.91571180  0.87381613  0.62324038    -0.05560
N411        N  0.87672328  0.87132893  0.61513704    -0.58380
N412        N  0.96502500  0.85990457  0.67890057    -0.05240
N413        N  0.94906127  0.85753870  0.70221374    -0.60880
C414        C  0.92873589  0.82000054  0.70313132     0.95900
C415        C  0.85931206  0.90642335  0.62480747     0.95670
N416        N  0.02486854  0.98807340  0.62887948    -0.06470
N417        N  0.02652907  0.02758772  0.62170376    -0.58980
N418        N  0.04050559  0.92895430  0.68063632    -0.04590
N419        N  0.04967933  0.92809247  0.70535701    -0.60230
N420        N  0.07481359  0.93712271  0.66722004    -0.06500
N421        N  0.10744529  0.94180694  0.68241211    -0.59250
N422        N  0.99006999  0.98007275  0.64167166    -0.04230
N423        N  0.96722877  0.01403764  0.64358198    -0.60320
Mn424      Mn  0.97905155  0.91961550  0.66034288     1.18440
C425        C  0.99002748  0.04314113  0.63058151     0.97980
C426        C  0.09186289  0.93609236  0.70634869     0.98640
N427        N  0.96831500  0.81658217  0.57978243    -0.06520
N428        N  0.95974771  0.78270551  0.56520859    -0.62820
N429        N  0.04621484  0.78644046  0.60997985    -0.05320
N430        N  0.06920526  0.75237722  0.60971609    -0.63500
N431        N  0.01144393  0.77933576  0.62310966    -0.06020
N432        N  0.00960416  0.74084464  0.63161358    -0.63090
N433        N  0.99824180  0.83850287  0.56842126    -0.04920
N434        N  0.00503082  0.82439301  0.54508269    -0.63780
Mn435      Mn  0.96168013  0.82338227  0.62292307     1.10660
C436        C  0.98306834  0.78832763  0.54333891     0.99200
C437        C  0.04600814  0.72431008  0.62355464     0.99280
N438        N  0.12249063  0.89321462  0.62186458    -0.06030
N439        N  0.16182126  0.89434629  0.62975576    -0.61400
N440        N  0.06235822  0.90763726  0.57013343    -0.05350
N441        N  0.04761854  0.91489751  0.54708993    -0.58130
N442        N  0.06701648  0.94291433  0.58324500    -0.06660
N443        N  0.05490527  0.97485424  0.56936402    -0.60970
N444        N  0.11467443  0.85811082  0.60925702    -0.05650
N445        N  0.14807690  0.83459346  0.60816783    -0.58160
Mn446      Mn  0.07374741  0.94135987  0.62522805     1.20190
Mn447      Mn  0.05616710  0.84728465  0.58936808     1.10090
Cl448      Cl  0.01768380  0.88273636  0.62476803    -0.86130
C449        C  0.17700653  0.85711642  0.62144807     0.96210
C450        C  0.04331912  0.95678717  0.54681688     0.96000
N451        N  0.45022682  0.31967051  0.66913683    -0.06280
N452        N  0.42134448  0.30419210  0.68535129    -0.58400
N453        N  0.42161715  0.39778838  0.63560190    -0.05960
N454        N  0.38718495  0.42037711  0.63494879    -0.60530
N455        N  0.41537698  0.36234867  0.62278410    -0.05560
N456        N  0.37746713  0.36042377  0.61305415    -0.58380
N457        N  0.46725361  0.35351005  0.67966234    -0.05240
N458        N  0.45371014  0.35964911  0.70305584    -0.60880
C459        C  0.42515998  0.32926092  0.70675305     0.95900
C460        C  0.35978639  0.39662382  0.62067521     0.95670
N461        N  0.53171405  0.46827935  0.62538914    -0.06470
N462        N  0.53573149  0.50582669  0.61545821    -0.58980
N463        N  0.54056507  0.41405917  0.68050903    -0.04590
N464        N  0.54763397  0.40327386  0.70455846    -0.60230
N465        N  0.57632847  0.41821024  0.66813316    -0.06500
N466        N  0.60805755  0.41053543  0.68343678    -0.59250
N467        N  0.49550171  0.46385014  0.63705417    -0.04230
N468        N  0.47373486  0.49827760  0.63558101    -0.60320
Mn469      Mn  0.48092892  0.40808326  0.65834191     1.18440
C470        C  0.49902494  0.52381223  0.62164298     0.97980
C471        C  0.59015729  0.40172166  0.70646449     0.98640
N472        N  0.46405177  0.30211319  0.58360250    -0.06520
N473        N  0.43682664  0.28271419  0.56813682    -0.62820
N474        N  0.54305768  0.26652773  0.61554825    -0.05320
N475        N  0.56374786  0.23120969  0.61604947    -0.63500
N476        N  0.50724696  0.26243717  0.62844572    -0.06020
N477        N  0.50313774  0.22418194  0.63768151    -0.63090
N478        N  0.50005544  0.30846961  0.57142565    -0.04920
N479        N  0.49775771  0.29383411  0.54768970    -0.63780
Mn480      Mn  0.45830679  0.31048240  0.62612638     1.10660
C481        C  0.45818817  0.27820786  0.54569724     0.99200
C482        C  0.53877845  0.20524367  0.63006545     0.99280
N483        N  0.62142633  0.36995219  0.62623609    -0.06030
N484        N  0.65859555  0.37401737  0.63626080    -0.61400
N485        N  0.57111025  0.38281948  0.57076407    -0.05350
N486        N  0.57300564  0.39165606  0.54594495    -0.58130
N487        N  0.57759753  0.41741724  0.58437394    -0.06660
N488        N  0.58365628  0.45001849  0.56952107    -0.60970
N489        N  0.61778775  0.33496005  0.61298593    -0.05650
N490        N  0.65384029  0.31488818  0.61329608    -0.58160
Mn491      Mn  0.57726377  0.41917713  0.62607031     1.20190
Mn492      Mn  0.55882907  0.32245718  0.59185282     1.10090
Cl493      Cl  0.51848711  0.36438902  0.62519283    -0.86130
C494        C  0.67914873  0.34013107  0.62809912     0.96210
C495        C  0.58063630  0.43394956  0.54563384     0.96000
N496        N  0.56978462  0.81072906  0.66628132    -0.06280
N497        N  0.59926332  0.82437492  0.68224149    -0.58400
N498        N  0.48932129  0.76344636  0.63223765    -0.05960
N499        N  0.46787292  0.72764070  0.63114632    -0.60530
N500        N  0.52661428  0.75941687  0.62197286    -0.05560
N501        N  0.53125680  0.72105438  0.61309547    -0.58380
N502        N  0.53249515  0.81313643  0.67720435    -0.05240
N503        N  0.53623271  0.82801229  0.70084059    -0.60880
C504        C  0.57786430  0.83473311  0.70380346     0.95900
C505        C  0.49424394  0.70177433  0.61865908     0.95670
N506        N  0.41430426  0.86819605  0.61995560    -0.06470
N507        N  0.37587528  0.87284603  0.61181508    -0.58980
N508        N  0.46218482  0.87275094  0.67655226    -0.04590
N509        N  0.44889836  0.86695304  0.69989054    -0.60230
N510        N  0.45004010  0.90861023  0.66746016    -0.06500
N511        N  0.42510775  0.92677041  0.68477617    -0.59250
N512        N  0.41805503  0.83149972  0.63100784    -0.04230
N513        N  0.38153526  0.81075699  0.63057161    -0.60320
Mn514      Mn  0.47496689  0.81890706  0.65424970     1.18440
C515        C  0.35566812  0.83681220  0.61812591     0.97980
C516        C  0.42603010  0.90030787  0.70518852     0.98640
N517        N  0.57380966  0.81158446  0.58280518    -0.06520
N518        N  0.56215585  0.78072919  0.56706008    -0.62820
N519        N  0.61747615  0.89438428  0.61629645    -0.05320
N520        N  0.65206866  0.91769398  0.61662935    -0.63500
N521        N  0.62369454  0.85768257  0.62626634    -0.06020
N522        N  0.66293207  0.85502946  0.63374236    -0.63090
N523        N  0.56945822  0.84811753  0.57183706    -0.04920
N524        N  0.55526259  0.84258397  0.54827361    -0.63780
Mn525      Mn  0.57488559  0.80848736  0.62447274     1.10660
C526        C  0.55101485  0.80052998  0.54554194     0.99200
C527        C  0.68016780  0.89290459  0.62774875     0.99280
N528        N  0.51060172  0.96646478  0.63059562    -0.06030
N529        N  0.50650529  0.00520740  0.63923387    -0.61400
N530        N  0.50717300  0.91600457  0.57376539    -0.05350
N531        N  0.51221948  0.92650739  0.54997077    -0.58130
N532        N  0.47093667  0.92778012  0.58303695    -0.06660
N533        N  0.45144411  0.94948700  0.56519805    -0.60970
N534        N  0.54736406  0.96214434  0.61913391    -0.05650
N535        N  0.56879096  0.99808096  0.61983932    -0.58160
Mn536      Mn  0.46030639  0.91911784  0.62529921     1.20190
Mn537      Mn  0.56128794  0.90575510  0.59526860     1.10090
Cl538      Cl  0.51770248  0.86326230  0.62487866    -0.86130
C539        C  0.54318309  0.02446231  0.63273700     0.96210
C540        C  0.47785072  0.94720120  0.54438709     0.96000
N541        N  0.06733568  0.17094723  0.33118657    -0.06280
N542        N  0.09662676  0.17029664  0.31333761    -0.58400
N543        N  0.99834756  0.22828418  0.36497560    -0.05960
N544        N  0.98277785  0.26635142  0.36680180    -0.60530
N545        N  0.03718727  0.22914768  0.37333426    -0.05560
N546        N  0.04852455  0.26686405  0.38111290    -0.58380
N547        N  0.02952333  0.16980520  0.32111351    -0.05240
N548        N  0.03282281  0.16864342  0.29571959    -0.60880
C549        C  0.07498763  0.16860498  0.29139590     0.95900
C550        C  0.01453943  0.28991326  0.37728054     0.95670
N551        N  0.90853084  0.13341520  0.38773605    -0.06470
N552        N  0.86925242  0.13172969  0.39607291    -0.58980
N553        N  0.94767013  0.11098199  0.32963189    -0.04590
N554        N  0.93242233  0.10586939  0.30631252    -0.60230
N555        N  0.93848962  0.07801464  0.34381630    -0.06500
N556        N  0.91619340  0.05006232  0.33020377    -0.59250
N557        N  0.91482326  0.16634911  0.37289125    -0.04230
N558        N  0.87929336  0.18713473  0.37105822    -0.60320
Mn559      Mn  0.97201582  0.17019525  0.34663687     1.18440
C560        C  0.85105410  0.16555043  0.38591836     0.97980
C561        C  0.91316943  0.06770275  0.30672313     0.98640
N562        N  0.08866078  0.18359042  0.41331226    -0.06520
N563        N  0.09730631  0.21707701  0.42773395    -0.62820
N564        N  0.11052801  0.09086846  0.38565293    -0.05320
N565        N  0.14067381  0.06336177  0.38573968    -0.63500
N566        N  0.12051062  0.12263777  0.37102275    -0.06020
N567        N  0.15830728  0.11760089  0.36088554    -0.63090
N568        N  0.08013278  0.15115742  0.42767825    -0.04920
N569        N  0.08313829  0.16128604  0.45212501    -0.63780
Mn570      Mn  0.07908647  0.17728274  0.37179714     1.10660
C571        C  0.09428093  0.20240654  0.45197276     0.99200
C572        C  0.17038160  0.08009029  0.37011827     0.99280
N573        N  0.99558428  0.02927069  0.38384452    -0.06030
N574        N  0.98957050  0.98995676  0.37652933    -0.61400
N575        N  0.00195289  0.09612169  0.43620623    -0.05350
N576        N  0.00905352  0.08712572  0.46015991    -0.58130
N577        N  0.96566406  0.08002780  0.42867245    -0.06660
N578        N  0.95062806  0.05501048  0.44705021    -0.60970
N579        N  0.03338861  0.03482610  0.39320493    -0.05650
N580        N  0.05429295  0.99991018  0.39177572    -0.58160
Mn581      Mn  0.95112912  0.07950393  0.38625190     1.20190
Mn582      Mn  0.05620477  0.09290858  0.41086267     1.10090
Cl583      Cl  0.01421859  0.13013808  0.37878632    -0.86130
C584        C  0.02677252  0.97215262  0.38140722     0.96210
C585        C  0.97831421  0.06007352  0.46677222     0.96000
N586        N  0.11489609  0.68885866  0.34776813    -0.06280
N587        N  0.14925316  0.69438863  0.33374287    -0.58400
N588        N  0.02925557  0.73020864  0.37522993    -0.05960
N589        N  0.01022105  0.76605775  0.37408464    -0.60530
N590        N  0.06353472  0.73379336  0.38878535    -0.05560
N591        N  0.06893304  0.77288567  0.39671087    -0.58380
N592        N  0.08139679  0.68772593  0.33315599    -0.05240
N593        N  0.09237733  0.69276024  0.30884518    -0.60880
C594        C  0.13476705  0.69702135  0.30950524     0.95900
C595        C  0.03512982  0.79262526  0.38749987     0.95670
N596        N  0.94397880  0.63305703  0.37870697    -0.06470
N597        N  0.90430463  0.63111701  0.38554089    -0.58980
N598        N  0.00504786  0.62562286  0.32497027    -0.04590
N599        N  0.98957099  0.63434562  0.30253393    -0.60230
N600        N  0.98639338  0.59191061  0.33446196    -0.06500
N601        N  0.95568108  0.57938317  0.31902945    -0.59250
N602        N  0.95336742  0.66882156  0.36758054    -0.04230
N603        N  0.91948513  0.69223714  0.36673858    -0.60320
Mn604      Mn  0.01735619  0.67840831  0.34998507     1.18440
C605        C  0.88923248  0.66829344  0.37845357     0.97980
C606        C  0.95802945  0.60644543  0.29925673     0.98640
N607        N  0.09562194  0.67508115  0.43104501    -0.06520
N608        N  0.08369570  0.70505914  0.44711379    -0.62820
N609        N  0.14266689  0.59391172  0.39835177    -0.05320
N610        N  0.17586110  0.56948443  0.39733027    -0.63500
N611        N  0.15280503  0.63132691  0.38980693    -0.06020
N612        N  0.19260684  0.63297921  0.38278577    -0.63090
N613        N  0.08523537  0.63793762  0.44029683    -0.04920
N614        N  0.06570737  0.64228627  0.46265949    -0.63780
Mn615      Mn  0.10830763  0.68299768  0.38967291     1.10660
C616        C  0.06537219  0.68417568  0.46678640     0.99200
C617        C  0.20712716  0.59420858  0.38726455     0.99280
N618        N  0.03034633  0.53103334  0.37361359    -0.06030
N619        N  0.02020109  0.49380822  0.36445737    -0.61400
N620        N  0.01712388  0.57104419  0.43159535    -0.05350
N621        N  0.00991989  0.55707748  0.45485725    -0.58130
N622        N  0.98260334  0.56983647  0.41804494    -0.06660
N623        N  0.95113101  0.55401222  0.43191684    -0.60970
N624        N  0.06426494  0.52951672  0.38781891    -0.05650
N625        N  0.07711139  0.49042579  0.38853274    -0.58160
Mn626      Mn  0.98570236  0.58101290  0.37627455     1.20190
Mn627      Mn  0.07893172  0.58215330  0.41485105     1.10090
Cl628      Cl  0.04781910  0.63086569  0.38249210    -0.86130
C629        C  0.04944950  0.46843143  0.37354215     0.96210
C630        C  0.96865550  0.54724774  0.45506218     0.96000
N631        N  0.58603397  0.06832485  0.34382662    -0.06280
N632        N  0.62055678  0.05816392  0.33085573    -0.58400
N633        N  0.60339769  0.15330559  0.37203971    -0.05960
N634        N  0.63802889  0.17733668  0.36988343    -0.60530
N635        N  0.61017038  0.12318954  0.38843834    -0.05560
N636        N  0.64898708  0.12578162  0.39708441    -0.58380
N637        N  0.56407908  0.09343584  0.32970711    -0.05240
N638        N  0.57998779  0.09709373  0.30670367    -0.60880
C639        C  0.61566102  0.07632610  0.30754999     0.95900
C640        C  0.66637400  0.16011583  0.38587067     0.95670
N641        N  0.48408622  0.20773858  0.37569881    -0.06470
N642        N  0.47839960  0.24466090  0.38655999    -0.58980
N643        N  0.48719368  0.14619032  0.32208187    -0.04590
N644        N  0.48238911  0.13464791  0.29759764    -0.60230
N645        N  0.45026700  0.14884357  0.33312852    -0.06500
N646        N  0.42025738  0.13910765  0.31700228    -0.59250
N647        N  0.52200397  0.20587846  0.36582790    -0.04230
N648        N  0.54326616  0.24102447  0.36992998    -0.60320
Mn649      Mn  0.54444762  0.15050208  0.34687315     1.18440
C650        C  0.51591678  0.26443627  0.38325402     0.97980
C651        C  0.43991499  0.13084809  0.29469462     0.98640
N652        N  0.55297141  0.06476802  0.42862349    -0.06520
N653        N  0.57222493  0.05241517  0.44975012    -0.62820
N654        N  0.49267228  0.00699794  0.39081559    -0.05320
N655        N  0.48172567  0.96637076  0.39085233    -0.63500
N656        N  0.53158280  0.01089328  0.38207744    -0.06020
N657        N  0.54696339  0.97445221  0.37563267    -0.63090
N658        N  0.51318797  0.06989158  0.43433965    -0.04920
N659        N  0.50539935  0.06517599  0.45861505    -0.63780
Mn660      Mn  0.57120292  0.06626952  0.38635132     1.10660
C661        C  0.54163053  0.05403779  0.46843884     0.99200
C662        C  0.51625543  0.94662965  0.38118993     0.99280
N663        N  0.39969174  0.09803745  0.37131987    -0.06030
N664        N  0.36195682  0.09591760  0.36133298    -0.61400
N665        N  0.43812008  0.12266964  0.42868158    -0.05350
N666        N  0.43716829  0.13298431  0.45342216    -0.58130
N667        N  0.43146760  0.15602761  0.41502523    -0.06660
N668        N  0.42517080  0.18911716  0.42989846    -0.60970
N669        N  0.40753113  0.06360256  0.38373068    -0.05650
N670        N  0.37444298  0.03773785  0.38310498    -0.58160
Mn671      Mn  0.44073559  0.15389968  0.37376568     1.20190
Mn672      Mn  0.46189375  0.06425254  0.40930376     1.10090
Cl673      Cl  0.50482510  0.10853383  0.37932181    -0.86130
C674        C  0.34651822  0.05808048  0.36853559     0.96210
C675        C  0.42854445  0.17465936  0.45402072     0.96000
N676        N  0.48038674  0.63612978  0.34018831    -0.06280
N677        N  0.45682501  0.65386690  0.32261023    -0.58400
N678        N  0.45294668  0.56099385  0.37699590    -0.05960
N679        N  0.41545469  0.54201595  0.37449408    -0.60530
N680        N  0.44834114  0.59659778  0.38976960    -0.05560
N681        N  0.40897881  0.60156902  0.39666547    -0.58380
N682        N  0.49431876  0.60058469  0.33079479    -0.05240
N683        N  0.48219412  0.59361486  0.30732778    -0.60880
C684        C  0.45921722  0.62668810  0.30224323     0.95900
C685        C  0.38834959  0.56756338  0.38729580     0.95670
N686        N  0.57209503  0.50015245  0.38543154    -0.06470
N687        N  0.57968769  0.46209607  0.39366717    -0.58980
N688        N  0.57093353  0.54276158  0.32861776    -0.04590
N689        N  0.57479773  0.53456851  0.30365867    -0.60230
N690        N  0.60841644  0.54573043  0.33884791    -0.06500
N691        N  0.63803645  0.53943984  0.32150880    -0.59250
N692        N  0.53316560  0.50193637  0.37760458    -0.04230
N693        N  0.51327959  0.46598754  0.38059667    -0.60320
Mn694      Mn  0.51262202  0.55081714  0.35346469     1.18440
C695        C  0.54243914  0.44140448  0.39056260     0.97980
C696        C  0.61704397  0.53233267  0.29944544     0.98640
N697        N  0.50027056  0.66429910  0.42464787    -0.06520
N698        N  0.47874673  0.68797280  0.44115969    -0.62820
N699        N  0.56877511  0.70591613  0.38598247    -0.05320
N700        N  0.58127900  0.74593600  0.38510889    -0.63500
N701        N  0.53166394  0.70212139  0.37522850    -0.06020
N702        N  0.51863527  0.73841979  0.36730973    -0.63090
N703        N  0.53781429  0.65839201  0.43398987    -0.04920
N704        N  0.54171500  0.67528141  0.45688617    -0.63780
Mn705      Mn  0.48962804  0.65008478  0.38251371     1.10660
C706        C  0.50508698  0.69372054  0.46149893     0.99200
C707        C  0.54944458  0.76609805  0.37333908     0.99280
N708        N  0.65802091  0.60937061  0.37522651    -0.06030
N709        N  0.69746933  0.61070038  0.36720274    -0.61400
N710        N  0.61081265  0.59599414  0.43294637    -0.05350
N711        N  0.60596363  0.58809313  0.45778443    -0.58130
N712        N  0.62050182  0.56116198  0.42078294    -0.06660
N713        N  0.62264737  0.52964400  0.43664034    -0.60970
N714        N  0.64833950  0.64545440  0.38595033    -0.05650
N715        N  0.68073306  0.67190952  0.38533785    -0.58160
Mn716      Mn  0.61600732  0.55379391  0.37986117     1.20190
Mn717      Mn  0.59232875  0.65208153  0.40993130     1.10090
Cl718      Cl  0.55262833  0.60191110  0.38135370    -0.86130
C719        C  0.71090924  0.65028441  0.37308174     0.96210
C720        C  0.61409082  0.54638991  0.45981646     0.96000
C721        C  0.54234821  0.81299232  0.37353722    -0.05500
C722        C  0.50330037  0.82946995  0.36528721    -0.02620
C723        C  0.49392779  0.87236559  0.36915369     0.02370
C724        C  0.52388600  0.90034339  0.37984353    -0.05500
C725        C  0.56389754  0.88474658  0.38633659    -0.02600
C726        C  0.57281394  0.84164208  0.38348880     0.02370
C727        C  0.47263389  0.80331358  0.35175465     0.37020
C728        C  0.59695213  0.91294329  0.39569540     0.37010
C729        C  0.61419620  0.82754191  0.39029644     0.35430
C730        C  0.45409059  0.88822327  0.36068196     0.35430
N731        N  0.64727915  0.81672947  0.39585612    -0.39390
N732        N  0.42239136  0.90084974  0.35384098    -0.39390
N733        N  0.62393644  0.93506073  0.40266807    -0.38830
N734        N  0.44805355  0.78289372  0.34077137    -0.38830
C735        C  0.52200203  0.30939969  0.38606005    -0.05500
C736        C  0.54067503  0.32691394  0.40819415    -0.02620
C737        C  0.54810381  0.37047436  0.40978443     0.02370
C738        C  0.53769553  0.39573620  0.38894416    -0.05500
C739        C  0.52089438  0.37742731  0.36623482    -0.02600
C740        C  0.51216316  0.33439853  0.36510422     0.02370
C741        C  0.55223840  0.30012402  0.42911919     0.37020
C742        C  0.51384975  0.40228797  0.34355100     0.37010
C743        C  0.49354488  0.31562931  0.34217128     0.35430
C744        C  0.56542815  0.38928615  0.43291473     0.35430
N745        N  0.47868945  0.30062294  0.32397549    -0.39390
N746        N  0.57915131  0.40425084  0.45142853    -0.39390
N747        N  0.50817920  0.42191410  0.32544963    -0.38830
N748        N  0.56152102  0.27867143  0.44576400    -0.38830
C749        C  0.84333750  0.67603985  0.37988666    -0.05500
C750        C  0.82133925  0.69227525  0.35889051    -0.02620
C751        C  0.77757607  0.68467865  0.35673218     0.02370
C752        C  0.75578393  0.66190082  0.37580125    -0.05500
C753        C  0.77669649  0.65066110  0.39828658    -0.02600
C754        C  0.82015583  0.65818798  0.40047707     0.02370
C755        C  0.84312765  0.71648364  0.33943913     0.37020
C756        C  0.75362770  0.63012377  0.41892807     0.37010
C757        C  0.84114822  0.64686698  0.42391649     0.35430
C758        C  0.75508452  0.69930409  0.33465559     0.35430
N759        N  0.85777272  0.63779966  0.44261160    -0.39390
N760        N  0.73705913  0.71098112  0.31706555    -0.39390
N761        N  0.73516833  0.61373978  0.43532599    -0.38830
N762        N  0.85933602  0.73693694  0.32393442    -0.38830
C763        C  0.25290826  0.58274801  0.38368550    -0.05500
C764        C  0.26962686  0.54527040  0.39369973    -0.02620
C765        C  0.31369765  0.53848102  0.39324072     0.02370
C766        C  0.34176705  0.56905287  0.38322477    -0.05500
C767        C  0.32502457  0.60492550  0.37170232    -0.02600
C768        C  0.28131889  0.61110979  0.37122169     0.02370
C769        C  0.24207255  0.51373411  0.40505341     0.37020
C770        C  0.35290639  0.63659399  0.36049843     0.37010
C771        C  0.26645220  0.64740128  0.35771838     0.35430
C772        C  0.33040142  0.50092686  0.40423560     0.35430
N773        N  0.25530504  0.67654063  0.34690748    -0.39390
N774        N  0.34379089  0.47091814  0.41296964    -0.39390
N775        N  0.37461402  0.66222128  0.35162610    -0.38830
N776        N  0.22030270  0.48832007  0.41411739    -0.38830
C777        C  0.80399034  0.17207844  0.38724743    -0.05500
C778        C  0.78075487  0.16013697  0.40939013    -0.02620
C779        C  0.73614890  0.15890840  0.40940392     0.02370
C780        C  0.71325852  0.17062064  0.38747453    -0.05500
C781        C  0.73660166  0.18808436  0.36670504    -0.02600
C782        C  0.78131252  0.18713103  0.36611467     0.02370
C783        C  0.80272577  0.14942217  0.43256717     0.37020
C784        C  0.71552196  0.20871069  0.34613059     0.37010
C785        C  0.80353006  0.19957954  0.34295030     0.35430
C786        C  0.71385964  0.14668150  0.43260670     0.35430
N787        N  0.82101384  0.20921233  0.32432141    -0.39390
N788        N  0.69617195  0.13705575  0.45116536    -0.39390
N789        N  0.70052344  0.22716187  0.32976865    -0.38830
N790        N  0.82017241  0.14103602  0.45110633    -0.38830
C791        C  0.21385730  0.06387297  0.36796199    -0.05500
C792        C  0.23698519  0.06804796  0.34487283    -0.02620
C793        C  0.27994529  0.05860506  0.34416149     0.02370
C794        C  0.30089093  0.04812124  0.36676648    -0.05500
C795        C  0.27710442  0.03880611  0.38897210    -0.02600
C796        C  0.23356159  0.04611404  0.38951295     0.02370
C797        C  0.21713915  0.08290784  0.32192848     0.37020
C798        C  0.29760089  0.02436829  0.41185054     0.37010
C799        C  0.21026868  0.03814001  0.41305450     0.35430
C800        C  0.30299144  0.05899670  0.32012373     0.35430
N801        N  0.19193868  0.03155566  0.43188386    -0.39390
N802        N  0.32162893  0.05783060  0.30103117    -0.39390
N803        N  0.31377125  0.01274969  0.43013305    -0.38830
N804        N  0.20179922  0.09514170  0.30354690    -0.38830
C805        C  0.03298655  0.92655575  0.38085475    -0.05500
C806        C  0.05844418  0.90771104  0.39940035    -0.02620
C807        C  0.05574616  0.86433219  0.40304791     0.02370
C808        C  0.03212071  0.83869315  0.38600958    -0.05500
C809        C  0.00940140  0.85743533  0.36592208    -0.02600
C810        C  0.00966875  0.90119951  0.36359390     0.02370
C811        C  0.08891275  0.93177883  0.41437727     0.37020
C812        C  0.98591572  0.83259814  0.34713205     0.37010
C813        C  0.98746883  0.91998067  0.34252151     0.35430
C814        C  0.07647747  0.84663573  0.42502313     0.35430
N815        N  0.96989580  0.93484674  0.32570690    -0.39390
N816        N  0.09286144  0.83278529  0.44261358    -0.39390
N817        N  0.96701888  0.81335759  0.33200531    -0.38830
N818        N  0.11463233  0.94934428  0.42610505    -0.38830
C819        C  0.01768126  0.33630827  0.37885911    -0.05500
C820        C  0.99870321  0.36096469  0.36022311    -0.02620
C821        C  0.01145956  0.40318855  0.35726506     0.02370
C822        C  0.04213022  0.42201983  0.37380208    -0.05500
C823        C  0.06040354  0.39722298  0.39285078    -0.02600
C824        C  0.04713343  0.35519991  0.39589942     0.02370
C825        C  0.96643642  0.34306475  0.34360638     0.37020
C826        C  0.09327815  0.41408936  0.40940053     0.37010
C827        C  0.06356235  0.33163797  0.41712597     0.35430
C828        C  0.99337815  0.42638764  0.33641946     0.35430
N829        N  0.07683388  0.31331926  0.43413219    -0.39390
N830        N  0.97857240  0.44458754  0.31984949    -0.39390
N831        N  0.11973416  0.42703938  0.42256994    -0.38830
N832        N  0.94044726  0.32914573  0.33044115    -0.38830
C833        C  0.48279997  0.97600934  0.52256635    -0.05500
C834        C  0.48628232  0.01948636  0.52749688    -0.02620
C835        C  0.51258488  0.04507253  0.51192046     0.02370
C836        C  0.53613325  0.02754517  0.49128710    -0.05500
C837        C  0.53278783  0.98393332  0.48676318    -0.02600
C838        C  0.50401460  0.95909317  0.50092212     0.02370
C839        C  0.46321674  0.03788020  0.54874886     0.37020
C840        C  0.55783627  0.96456856  0.46680630     0.37010
C841        C  0.49831235  0.91483066  0.49437226     0.35430
C842        C  0.51323913  0.09021698  0.51593955     0.35430
N843        N  0.49382425  0.87960680  0.48919076    -0.39390
N844        N  0.51334353  0.12624682  0.51889572    -0.39390
N845        N  0.57814959  0.94853793  0.45123776    -0.38830
N846        N  0.44466580  0.05264946  0.56562779    -0.38830
C847        C  0.53206415  0.77914737  0.52281098    -0.05500
C848        C  0.54987439  0.78594677  0.49851468    -0.02620
C849        C  0.53652928  0.76127078  0.47744895     0.02370
C850        C  0.50508377  0.72933065  0.48029969    -0.05500
C851        C  0.48415711  0.72565177  0.50411076    -0.02600
C852        C  0.49729199  0.75097363  0.52526687     0.02370
C853        C  0.58439575  0.81615395  0.49551366     0.37020
C854        C  0.45093368  0.69431334  0.50718511     0.37010
C855        C  0.47452645  0.74908899  0.54937116     0.35430
C856        C  0.55904836  0.76617020  0.45351517     0.35430
N857        N  0.45616993  0.74879490  0.56859370    -0.39390
N858        N  0.57910554  0.77097422  0.43524113    -0.39390
N859        N  0.42434766  0.66930403  0.50961472    -0.38830
N860        N  0.61193968  0.84011281  0.49311578    -0.38830
C861        C  0.58681990  0.46084873  0.52261632    -0.05500
C862        C  0.56622414  0.49966128  0.52128949    -0.02620
C863        C  0.57597924  0.52846571  0.50156073     0.02370
C864        C  0.60694204  0.51907119  0.48285712    -0.05500
C865        C  0.62803448  0.48026327  0.48457695    -0.02600
C866        C  0.61748151  0.45121526  0.50401804     0.02370
C867        C  0.53389386  0.50963448  0.53999238     0.37020
C868        C  0.66167061  0.47014960  0.46675905     0.37010
C869        C  0.63929215  0.41184602  0.50533311     0.35430
C870        C  0.55301917  0.56714302  0.50037285     0.35430
N871        N  0.65655716  0.38037908  0.50630852    -0.39390
N872        N  0.53450986  0.59790618  0.49963170    -0.39390
N873        N  0.68844501  0.46180069  0.45259098    -0.38830
N874        N  0.50809338  0.51754288  0.55489711    -0.38830
C875        C  0.44358977  0.25351203  0.52273194    -0.05500
C876        C  0.42887715  0.21148746  0.52481510    -0.02620
C877        C  0.42248923  0.18615261  0.50251512     0.02370
C878        C  0.43007728  0.20268064  0.47770659    -0.05500
C879        C  0.44089945  0.24619520  0.47589625    -0.02600
C880        C  0.44873444  0.27081306  0.49816681     0.02370
C881        C  0.42214072  0.19353801  0.54995535     0.37020
C882        C  0.44404510  0.26683125  0.45136184     0.37010
C883        C  0.46237854  0.31443312  0.49575279     0.35430
C884        C  0.40723769  0.14323335  0.50531537     0.35430
N885        N  0.47343473  0.34909110  0.49380382    -0.39390
N886        N  0.39493937  0.10904183  0.50765351    -0.39390
N887        N  0.44593118  0.28483263  0.43227085    -0.38830
N888        N  0.41663584  0.17917646  0.56999740    -0.38830
C889        C  0.49454434  0.56907995  0.62189137    -0.05500
C890        C  0.46493666  0.58815226  0.60624135    -0.02620
C891        C  0.46304654  0.63214053  0.60589664     0.02370
C892        C  0.49118645  0.65632429  0.62097712    -0.05500
C893        C  0.51864596  0.63695438  0.63800668    -0.02600
C894        C  0.52040774  0.59328413  0.63840118     0.02370
C895        C  0.43764735  0.56268748  0.58993269     0.37020
C896        C  0.54481742  0.66194720  0.65537628     0.37010
C897        C  0.54871028  0.57322942  0.65592503     0.35430
C898        C  0.43266478  0.65224187  0.58993180     0.35430
N899        N  0.57119702  0.55718339  0.66985152    -0.39390
N900        N  0.40786939  0.66766376  0.57726818    -0.39390
N901        N  0.56558172  0.68184598  0.66922906    -0.38830
N902        N  0.41607062  0.54248162  0.57672364    -0.38830
C903        C  0.54823930  0.07076327  0.63275274    -0.05500
C904        C  0.55406736  0.09191703  0.60930028    -0.02620
C905        C  0.55172858  0.13594365  0.60856035     0.02370
C906        C  0.54452726  0.15929803  0.63135458    -0.05500
C907        C  0.54016417  0.13827130  0.65490688    -0.02600
C908        C  0.54180998  0.09409328  0.65557755     0.02370
C909        C  0.56006709  0.06835263  0.58559479     0.37020
C910        C  0.53411313  0.16210355  0.67846935     0.37010
C911        C  0.53700730  0.07253775  0.67977783     0.35430
C912        C  0.55368259  0.15683256  0.58399607     0.35430
N913        N  0.53327333  0.05523757  0.69905451    -0.39390
N914        N  0.55498583  0.17369719  0.56448980    -0.39390
N915        N  0.52937850  0.18112463  0.69727984    -0.38830
N916        N  0.56509539  0.04947769  0.56676303    -0.38830
C917        C  0.98972545  0.02661298  0.48519521    -0.05500
C918        C  0.96541598  0.01797770  0.50731971    -0.02620
C919        C  0.98236557  0.99396018  0.52732803     0.02370
C920        C  0.02375125  0.97902948  0.52536705    -0.05500
C921        C  0.04655114  0.98443429  0.50251824    -0.02600
C922        C  0.03011705  0.00841432  0.48271073     0.02370
C923        C  0.92406826  0.03543910  0.51002741     0.37020
C924        C  0.08796053  0.96662682  0.49978630     0.37010
C925        C  0.05712517  0.01741134  0.46083631     0.35430
C926        C  0.95712509  0.98346544  0.54967699     0.35430
N927        N  0.07960197  0.02639737  0.44417498    -0.39390
N928        N  0.93728509  0.97420302  0.56749695    -0.39390
N929        N  0.12087587  0.95236708  0.49758049    -0.38830
N930        N  0.89103030  0.04943340  0.51219001    -0.38830
C931        C  0.04295611  0.70520864  0.48843768    -0.05500
C932        C  0.99856404  0.70689187  0.48934956    -0.02620
C933        C  0.97803366  0.73115276  0.50862640     0.02370
C934        C  0.00179764  0.75408003  0.52700186    -0.05500
C935        C  0.04639328  0.75008908  0.52662326    -0.02600
C936        C  0.06651718  0.72626666  0.50738746     0.02370
C937        C  0.97431412  0.68597801  0.46936762     0.37020
C938        C  0.07279021  0.77240235  0.54507046     0.37010
C939        C  0.11205112  0.72469464  0.50648399     0.35430
C940        C  0.93281147  0.73446397  0.50863631     0.35430
N941        N  0.14830374  0.72361951  0.50567162    -0.39390
N942        N  0.89665882  0.73705638  0.50864821    -0.39390
N943        N  0.09490896  0.79055242  0.55899462    -0.38830
N944        N  0.95528059  0.66940379  0.45321777    -0.38830
C945        C  0.72569380  0.90270938  0.62883788    -0.05500
C946        C  0.74629995  0.92376575  0.60827261    -0.02620
C947        C  0.79039305  0.92715523  0.60760341     0.02370
C948        C  0.81376237  0.91002624  0.62741752    -0.05500
C949        C  0.79339037  0.89189779  0.64878986    -0.02600
C950        C  0.74943999  0.88799707  0.64947254     0.02370
C951        C  0.72284816  0.93963788  0.58688574     0.37020
C952        C  0.81781491  0.87573612  0.66969100     0.37010
C953        C  0.72901467  0.86807402  0.67128000     0.35430
C954        C  0.81187977  0.94720368  0.58621471     0.35430
N955        N  0.71320911  0.85182602  0.68868997    -0.39390
N956        N  0.82898266  0.96327118  0.56918518    -0.39390
N957        N  0.83719544  0.86291980  0.68639019    -0.38830
N958        N  0.70434905  0.95237315  0.56977076    -0.38830
C959        C  0.22205265  0.84780203  0.61989301    -0.05500
C960        C  0.24546714  0.86189882  0.59856650    -0.02620
C961        C  0.28854501  0.85379787  0.59667465     0.02370
C962        C  0.30906676  0.83298857  0.61668935    -0.05500
C963        C  0.28471869  0.81589621  0.63708021    -0.02600
C964        C  0.24112899  0.82307518  0.63848311     0.02370
C965        C  0.22523071  0.88547513  0.57869307     0.37020
C966        C  0.30428251  0.79250472  0.65720119     0.37010
C967        C  0.21593437  0.80559740  0.65920425     0.35430
C968        C  0.31176739  0.86731394  0.57404980     0.35430
N969        N  0.19574118  0.79146529  0.67563843    -0.39390
N970        N  0.33020299  0.87814841  0.55601243    -0.39390
N971        N  0.31962358  0.77367867  0.67330588    -0.38830
N972        N  0.20898241  0.90433538  0.56295216    -0.38830
C973        C  0.94406850  0.47063347  0.52010073    -0.05500
C974        C  0.95629911  0.45208858  0.49630526    -0.02620
C975        C  0.95941063  0.47664682  0.47401503     0.02370
C976        C  0.95071976  0.51975240  0.47513356    -0.05500
C977        C  0.93432694  0.53731660  0.49781831    -0.02600
C978        C  0.93019213  0.51281292  0.52010603     0.02370
C979        C  0.96780918  0.40837547  0.49448248     0.37020
C980        C  0.92321925  0.58120170  0.49849103     0.37010
C981        C  0.91196273  0.53176838  0.54293001     0.35430
C982        C  0.97416254  0.45816260  0.45006887     0.35430
N983        N  0.89733293  0.54719212  0.56101493    -0.39390
N984        N  0.98587131  0.44357099  0.43095524    -0.39390
N985        N  0.91409719  0.61611647  0.49924847    -0.38830
N986        N  0.97711437  0.37356503  0.49272473    -0.38830
C987        C  0.07786399  0.27867296  0.52001063    -0.05500
C988        C  0.04529049  0.25136064  0.51098681    -0.02620
C989        C  0.05056770  0.22805834  0.48826109     0.02370
C990        C  0.08928601  0.22951032  0.47498661    -0.05500
C991        C  0.12244520  0.25545928  0.48427403    -0.02600
C992        C  0.11671723  0.28014863  0.50676783     0.02370
C993        C  0.00631235  0.24585508  0.52536899     0.37020
C994        C  0.16245562  0.25630781  0.47086792     0.37010
C995        C  0.15044284  0.30742605  0.51601253     0.35430
C996        C  0.01520247  0.20366707  0.47807851     0.35430
N997        N  0.17741487  0.32914546  0.52342630    -0.39390
N998        N  0.98685068  0.18457453  0.46999609    -0.39390
N999        N  0.19441711  0.25688137  0.46016705    -0.38830
N1000       N  0.97520062  0.24142461  0.53671652    -0.38830
C1001       C  0.05396910  0.67881141  0.62606110    -0.05500
C1002       C  0.03459720  0.65682462  0.64664128    -0.02620
C1003       C  0.03098322  0.61289187  0.64574447     0.02370
C1004       C  0.04827178  0.59049749  0.62494463    -0.05500
C1005       C  0.07157195  0.61163016  0.60588387    -0.02600
C1006       C  0.07450183  0.65585997  0.60635013     0.02370
C1007       C  0.01784071  0.67918466  0.66878609     0.37020
C1008       C  0.09133950  0.58780555  0.58539666     0.37010
C1009       C  0.09746398  0.67708234  0.58604302     0.35430
C1010       C  0.00832481  0.59066609  0.66592129     0.35430
N1011       N  0.11634308  0.69332933  0.56978006    -0.39390
N1012       N  0.99013007  0.57288084  0.68187940    -0.39390
N1013       N  0.10712954  0.56873688  0.56909307    -0.38830
N1014       N  0.00432340  0.69685996  0.68642002    -0.38830
C1015       C  0.98251606  0.08854310  0.63226885    -0.05500
C1016       C  0.00103058  0.11227696  0.65230313    -0.02620
C1017       C  0.99982424  0.15636556  0.65213973     0.02370
C1018       C  0.98097105  0.17711904  0.63148632    -0.05500
C1019       C  0.95902875  0.15293088  0.61267285    -0.02600
C1020       C  0.95984669  0.10870487  0.61316811     0.02370
C1021       C  0.02242488  0.09121463  0.67277215     0.37020
C1022       C  0.93711659  0.17292235  0.59204699     0.37010
C1023       C  0.93805807  0.08409915  0.59365096     0.35430
C1024       C  0.01819830  0.18018299  0.67331914     0.35430
N1025       N  0.92002709  0.06527592  0.57798603    -0.39390
N1026       N  0.03284801  0.19908930  0.69022982    -0.39390
N1027       N  0.91934283  0.18846058  0.57555776    -0.38830
N1028       N  0.03946776  0.07430186  0.68903089    -0.38830
C1029       C  0.81328361  0.33632467  0.63901789    -0.05500
C1030       C  0.79252681  0.30182685  0.62669279    -0.02620
C1031       C  0.74814475  0.30091022  0.62472061     0.02370
C1032       C  0.72516459  0.33644343  0.63260408    -0.05500
C1033       C  0.74711907  0.37020000  0.64514592    -0.02600
C1034       C  0.78888510  0.36611475  0.65194559     0.02370
C1035       C  0.81629258  0.26738039  0.61606901     0.37020
C1036       C  0.73056932  0.41220965  0.64718002     0.37010
C1037       C  0.80675936  0.39436425  0.67126671     0.35430
C1038       C  0.72702168  0.26462337  0.61326542     0.35430
N1039       N  0.82060776  0.41671371  0.68683833    -0.39390
N1040       N  0.71038540  0.23551785  0.60411725    -0.39390
N1041       N  0.71826222  0.44608805  0.64780981    -0.38830
N1042       N  0.83507999  0.23976619  0.60756661    -0.38830
C1043       C  0.22431468  0.40914412  0.62419753    -0.05500
C1044       C  0.24330589  0.37081400  0.62998797    -0.02620
C1045       C  0.28673368  0.36621926  0.62684309     0.02370
C1046       C  0.31307595  0.40150589  0.62108358    -0.05500
C1047       C  0.29439436  0.44089141  0.61751297    -0.02600
C1048       C  0.25003527  0.44442470  0.61834636     0.02370
C1049       C  0.21840612  0.33617873  0.64056003     0.37020
C1050       C  0.32057232  0.47748420  0.61213371     0.37010
C1051       C  0.23086756  0.48395903  0.61265203     0.35430
C1052       C  0.30389536  0.32499582  0.63105345     0.35430
N1053       N  0.21549785  0.51549046  0.60805821    -0.39390
N1054       N  0.31721105  0.29212447  0.63460704    -0.39390
N1055       N  0.34130255  0.50689972  0.60793737    -0.38830
N1056       N  0.19870125  0.30876970  0.64917523    -0.38830
C1057       C  0.64096210  0.88640752  0.77039387    -0.05500
C1058       C  0.64928645  0.90381960  0.74615456    -0.02620
C1059       C  0.62661315  0.88912225  0.72444454     0.02370
C1060       C  0.59675546  0.85571053  0.72677729    -0.05500
C1061       C  0.58513737  0.84187656  0.75138704    -0.02600
C1062       C  0.60691240  0.85725445  0.77303318     0.02370
C1063       C  0.68296717  0.93475632  0.74331380     0.37020
C1064       C  0.55283659  0.80933656  0.75442319     0.37010
C1065       C  0.59692287  0.83896703  0.79765746     0.35430
C1066       C  0.63323296  0.90913122  0.69993057     0.35430
N1067       N  0.58798863  0.82275596  0.81667500    -0.39390
N1068       N  0.63814356  0.92571875  0.68050898    -0.39390
N1069       N  0.52714247  0.78342741  0.75691748    -0.38830
N1070       N  0.70988795  0.95944754  0.74104791    -0.38830
C1071       C  0.83991503  0.78673994  0.76464912    -0.05500
C1072       C  0.86067004  0.82619140  0.76465186    -0.02620
C1073       C  0.88938651  0.83694238  0.74490071     0.02370
C1074       C  0.89858789  0.80782164  0.72464069    -0.05500
C1075       C  0.87718928  0.76806252  0.72483821    -0.02600
C1076       C  0.84807713  0.75782334  0.74469386     0.02370
C1077       C  0.85294136  0.85579661  0.78554579     0.37020
C1078       C  0.88525452  0.73689586  0.70503022     0.37010
C1079       C  0.82705782  0.71700072  0.74497595     0.35430
C1080       C  0.90864186  0.87863926  0.74594583     0.35430
N1081       N  0.81022453  0.68445308  0.74524403    -0.39390
N1082       N  0.92343891  0.91211044  0.74705975    -0.39390
N1083       N  0.89142888  0.71178643  0.68930138    -0.38830
N1084       N  0.84689307  0.87922520  0.80223768    -0.38830
C1085       C  0.61415419  0.38358858  0.72881957    -0.05500
C1086       C  0.65864307  0.38585781  0.72937183    -0.02620
C1087       C  0.68184815  0.36223506  0.74704578     0.02370
C1088       C  0.66125610  0.33803598  0.76637255    -0.05500
C1089       C  0.61646998  0.33881818  0.76719940    -0.02600
C1090       C  0.59349704  0.36177851  0.74898918     0.02370
C1091       C  0.68107985  0.41607985  0.71358326     0.37020
C1092       C  0.59288603  0.31595078  0.78663082     0.37010
C1093       C  0.54846592  0.36485783  0.75223970     0.35430
C1094       C  0.72730267  0.36345725  0.74482923     0.35430
N1095       N  0.51270441  0.36825940  0.75524360    -0.39390
N1096       N  0.76348779  0.36471081  0.74267790    -0.39390
N1097       N  0.57328090  0.29788582  0.80185412    -0.38830
N1098       N  0.69941475  0.44116599  0.70192242    -0.38830
C1099       C  0.86663991  0.43148600  0.77543175    -0.05500
C1100       C  0.85659759  0.45919837  0.75573451    -0.02620
C1101       C  0.88425015  0.46480636  0.73453092     0.02370
C1102       C  0.92134217  0.44098535  0.73214146    -0.05500
C1103       C  0.93161716  0.41400019  0.75235138    -0.02600
C1104       C  0.90527120  0.41058811  0.77419971     0.02370
C1105       C  0.81672341  0.48018206  0.75661780     0.37020
C1106       C  0.96652139  0.38590442  0.74964518     0.37010
C1107       C  0.91732200  0.38409444  0.79519163     0.35430
C1108       C  0.87380256  0.49462066  0.71495806     0.35430
N1109       N  0.92717761  0.36312440  0.81192906    -0.39390
N1110       N  0.86528116  0.51835479  0.69934605    -0.39390
N1111       N  0.99349594  0.36243546  0.74745428    -0.38830
N1112       N  0.78478000  0.49670942  0.75726747    -0.38830
C1113       C  0.69366215  0.54701087  0.87643447    -0.05500
C1114       C  0.68633701  0.57086074  0.85447685    -0.02620
C1115       C  0.69157034  0.61498050  0.85536066     0.02370
C1116       C  0.70583065  0.63541047  0.87809672    -0.05500
C1117       C  0.71071045  0.61160648  0.90046514    -0.02600
C1118       C  0.70324538  0.56776150  0.89977660     0.02370
C1119       C  0.67454065  0.54968047  0.83074745     0.37020
C1120       C  0.72445382  0.63185907  0.92408033     0.37010
C1121       C  0.70626877  0.54375449  0.92300304     0.35430
C1122       C  0.68514493  0.63872931  0.83225040     0.35430
N1123       N  0.70757621  0.52466103  0.94164059    -0.39390
N1124       N  0.67992325  0.65761540  0.81380155    -0.39390
N1125       N  0.73573753  0.64744625  0.94302863    -0.38830
N1126       N  0.66501487  0.53271536  0.81185963    -0.38830
C1127       C  0.80084992  0.13885520  0.85907173    -0.05500
C1128       C  0.82186225  0.11892300  0.87907095    -0.02620
C1129       C  0.82742214  0.07478910  0.87835976     0.02370
C1130       C  0.81054650  0.04986136  0.85801716    -0.05500
C1131       C  0.79298550  0.07079968  0.83692063    -0.02600
C1132       C  0.78810106  0.11482046  0.83751803     0.02370
C1133       C  0.83657428  0.14377793  0.90081721     0.37020
C1134       C  0.77974426  0.04704026  0.81437119     0.37010
C1135       C  0.76866937  0.13540112  0.81616323     0.35430
C1136       C  0.85006589  0.05560510  0.89883474     0.35430
N1137       N  0.75322160  0.15196916  0.79917542    -0.39390
N1138       N  0.86922616  0.04149289  0.91519571    -0.39390
N1139       N  0.76920702  0.02814810  0.79636140    -0.38830
N1140       N  0.84822940  0.16364619  0.91817954    -0.38830
C1141       C  0.16801483  0.94880223  0.77644391    -0.05500
C1142       C  0.12383465  0.94130930  0.77776815    -0.02620
C1143       C  0.09962723  0.93546125  0.75522961     0.02370
C1144       C  0.11819545  0.93950608  0.73052550    -0.05500
C1145       C  0.16236496  0.94773324  0.72919719    -0.02600
C1146       C  0.18675867  0.95217808  0.75175929     0.02370
C1147       C  0.10196327  0.94006962  0.80224183     0.37020
C1148       C  0.18393219  0.95134951  0.70464858     0.37010
C1149       C  0.23141201  0.96153137  0.74913568     0.35430
C1150       C  0.05539393  0.92433468  0.75801459     0.35430
N1151       N  0.26694449  0.96896184  0.74676161    -0.39390
N1152       N  0.02030609  0.91507767  0.76062799    -0.39390
N1153       N  0.20162310  0.95431290  0.68525525    -0.38830
N1154       N  0.08312956  0.93970278  0.82129421    -0.38830
C1155       C  0.34535756  0.84573652  0.76052578    -0.05500
C1156       C  0.32807258  0.86114931  0.73770006    -0.02620
C1157       C  0.35312812  0.88492782  0.72044617     0.02370
C1158       C  0.39545552  0.89480045  0.72630982    -0.05500
C1159       C  0.41221600  0.88032606  0.74955386    -0.02600
C1160       C  0.38810193  0.85423446  0.76579825     0.02370
C1161       C  0.28386743  0.85363075  0.73247754     0.37020
C1162       C  0.45551552  0.89068321  0.75612229     0.37010
C1163       C  0.40667815  0.83849373  0.78902174     0.35430
C1164       C  0.33574405  0.89763113  0.69623022     0.35430
N1165       N  0.42157108  0.82594604  0.80747844    -0.39390
N1166       N  0.32172064  0.90760974  0.67691513    -0.39390
N1167       N  0.48999066  0.89881284  0.76135363    -0.38830
N1168       N  0.24859283  0.84777175  0.72832843    -0.38830
C1169       C  0.46761168  0.87022689  0.87681994    -0.05500
C1170       C  0.48363388  0.84072210  0.89427515    -0.02620
C1171       C  0.52660265  0.83066345  0.89388405     0.02370
C1172       C  0.55461166  0.85147970  0.87715182    -0.03740
C1173       C  0.53940901  0.88330088  0.86115308    -0.02600
C1174       C  0.49607668  0.89175736  0.86041925     0.02370
C1175       C  0.45625338  0.82134275  0.91333366     0.37020
C1176       C  0.56831727  0.90755435  0.84523283     0.37010
C1177       C  0.48103294  0.92148029  0.84199428     0.35430
C1178       C  0.54234303  0.79980474  0.91134647     0.35430
N1179       N  0.46926898  0.94510265  0.82716852    -0.39390
N1180       N  0.55496839  0.77522924  0.92527838    -0.39390
N1181       N  0.59108744  0.92727424  0.83258153    -0.38830
N1182       N  0.43450823  0.80599441  0.92860991    -0.38830
C1183       C  0.97098104  0.85544034  0.85873633    -0.05500
C1184       C  0.98837521  0.87498710  0.88099213    -0.02620
C1185       C  0.03177137  0.88024616  0.88306507     0.02370
C1186       C  0.05797699  0.86445475  0.86365576    -0.05500
C1187       C  0.04124521  0.84392033  0.84186124    -0.02600
C1188       C  0.99746512  0.83979017  0.83922419     0.02370
C1189       C  0.96230594  0.88811343  0.90255262     0.37020
C1190       C  0.06906684  0.82754293  0.82219733     0.37010
C1191       C  0.97973204  0.82024011  0.81637861     0.35430
C1192       C  0.04963904  0.90113717  0.90557604     0.35430
N1193       N  0.96546812  0.80470800  0.79816432    -0.39390
N1194       N  0.06391512  0.91781629  0.92342062    -0.39390
N1195       N  0.09134952  0.81447821  0.80654549    -0.38830
N1196       N  0.94184641  0.89868854  0.91979942    -0.38830
C1197       C  0.15926681  0.29608555  0.77573663    -0.05500
C1198       C  0.13487035  0.33224719  0.77512836    -0.02620
C1199       C  0.11312203  0.34254584  0.75276412     0.02370
C1200       C  0.11461876  0.31604207  0.73044174    -0.05500
C1201       C  0.13844989  0.27890460  0.73159207    -0.02600
C1202       C  0.16110206  0.26951257  0.75399427     0.02370
C1203       C  0.13397377  0.36053266  0.79725359     0.37020
C1204       C  0.14104818  0.25053611  0.70971696     0.37010
C1205       C  0.18663947  0.23248573  0.75469988     0.35430
C1206       C  0.09084766  0.38180558  0.75315986     0.35430
N1207       N  0.20710967  0.20301399  0.75528514    -0.39390
N1208       N  0.07395243  0.41356408  0.75386298    -0.39390
N1209       N  0.14336420  0.22765632  0.69237401    -0.38830
N1210       N  0.13331127  0.38323919  0.81473859    -0.38830
C1211       C  0.35655425  0.38960486  0.76592426    -0.05500
C1212       C  0.34279608  0.39165495  0.74051432    -0.02620
C1213       C  0.36124233  0.36643570  0.72120289     0.02370
C1214       C  0.39329370  0.33805325  0.72685785    -0.05500
C1215       C  0.40629765  0.33531969  0.75242860    -0.02600
C1216       C  0.38928034  0.36187736  0.77154549     0.02370
C1217       C  0.30895433  0.41944142  0.73437795     0.37020
C1218       C  0.43786614  0.30522948  0.75894502     0.37010
C1219       C  0.40477393  0.35934988  0.79735224     0.35430
C1220       C  0.34789276  0.37113891  0.69525670     0.35430
N1221       N  0.41842019  0.35652601  0.81764187    -0.39390
N1222       N  0.33599608  0.37606952  0.67479185    -0.39390
N1223       N  0.46290877  0.28112581  0.76415172    -0.38830
N1224       N  0.28205796  0.44168370  0.72950940    -0.38830
C1225       C  0.45357585  0.35803419  0.87617101    -0.05500
C1226       C  0.47669656  0.38905864  0.86246175    -0.02620
C1227       C  0.51920621  0.38322059  0.85719165     0.02370
C1228       C  0.53872882  0.34742145  0.86632092    -0.05500
C1229       C  0.51629028  0.31744331  0.88100686    -0.02600
C1230       C  0.47339869  0.32251632  0.88562580     0.02370
C1231       C  0.45682362  0.42606824  0.85263252     0.37020
C1232       C  0.53767293  0.28277539  0.89257520     0.37010
C1233       C  0.44986896  0.29192001  0.90071550     0.35430
C1234       C  0.54293351  0.41379721  0.84212468     0.35430
N1235       N  0.43107076  0.26764374  0.91278716    -0.39390
N1236       N  0.56189083  0.43802176  0.83010120    -0.39390
N1237       N  0.55480129  0.25537574  0.90196740    -0.38830
N1238       N  0.44118703  0.45553479  0.84465964    -0.38830
C1239       C  0.04196910  0.36380141  0.87228553    -0.05500
C1240       C  0.02215021  0.32766978  0.86104840    -0.02620
C1241       C  0.97889495  0.31989251  0.86444212     0.02370
C1242       C  0.95350225  0.35027649  0.87646888    -0.05500
C1243       C  0.97306630  0.38759327  0.88659802    -0.02600
C1244       C  0.01682320  0.39422835  0.88442942     0.02370
C1245       C  0.04550873  0.29834514  0.84515359     0.37020
C1246       C  0.94904510  0.41980670  0.89966044     0.37010
C1247       C  0.03535842  0.43303466  0.89456984     0.35430
C1248       C  0.96128563  0.27961910  0.85599300     0.35430
N1249       N  0.04969772  0.46414321  0.90262273    -0.39390
N1250       N  0.94766014  0.24734580  0.84934393    -0.39390
N1251       N  0.93044421  0.44582675  0.91008302    -0.38830
N1252       N  0.06372953  0.27482328  0.83243481    -0.38830
C1253       C  0.21339137  0.57647972  0.86637434    -0.05500
C1254       C  0.17558244  0.59816924  0.86297761    -0.02620
C1255       C  0.17571611  0.64291729  0.86221214     0.02370
C1256       C  0.21379021  0.66652587  0.86412560    -0.05500
C1257       C  0.25144795  0.64459838  0.86805709    -0.02600
C1258       C  0.25090940  0.60042896  0.87013461     0.02370
C1259       C  0.13668656  0.57446329  0.85958101     0.37020
C1260       C  0.29105419  0.66740787  0.87169033     0.37010
C1261       C  0.28900513  0.57995488  0.87783626     0.35430
C1262       C  0.13687595  0.66459461  0.85841048     0.35430
N1263       N  0.31924971  0.56380939  0.88425480    -0.39390
N1264       N  0.10590315  0.68201614  0.85535332    -0.39390
N1265       N  0.32263080  0.68533335  0.87481846    -0.38830
N1266       N  0.10560412  0.55551476  0.85684799    -0.38830
C1267       C  0.31325069  0.16988319  0.89314272    -0.05500
C1268       C  0.29601505  0.14724762  0.91390569    -0.02620
C1269       C  0.29767400  0.10318230  0.91396631     0.02370
C1270       C  0.31751741  0.08141580  0.89346990    -0.05500
C1271       C  0.34201366  0.10471213  0.87564265    -0.02600
C1272       C  0.34001658  0.14893896  0.87552811     0.02370
C1273       C  0.27579833  0.16922449  0.93506367     0.37020
C1274       C  0.36703953  0.08365342  0.85622123     0.37010
C1275       C  0.36404062  0.17210199  0.85639862     0.35430
C1276       C  0.27692099  0.08057261  0.93464640     0.35430
N1277       N  0.38349411  0.19030904  0.84116051    -0.39390
N1278       N  0.25967230  0.06320200  0.95113483    -0.39390
N1279       N  0.38712567  0.06720475  0.84064849    -0.38830
N1280       N  0.25981534  0.18674041  0.95195434    -0.38830
C1281       C  0.74360458  0.53128433  0.01105075    -0.05500
C1282       C  0.71810425  0.49509585  0.00932394    -0.02620
C1283       C  0.72799080  0.46282786  0.99172517     0.02370
C1284       C  0.76245468  0.46763102  0.97403641    -0.05500
C1285       C  0.78649761  0.50559666  0.97495030    -0.02600
C1286       C  0.77705952  0.53702663  0.99334375     0.02370
C1287       C  0.68360143  0.48958268  0.02749508     0.37020
C1288       C  0.82188796  0.51241566  0.95770521     0.37010
C1289       C  0.80423315  0.57405973  0.99546312     0.35430
C1290       C  0.70295616  0.42426478  0.99321395     0.35430
N1291       N  0.82658583  0.60307500  0.99698095    -0.39390
N1292       N  0.68241449  0.39396771  0.99475271    -0.39390
N1293       N  0.85025095  0.51819894  0.94409300    -0.38830
N1294       N  0.65623955  0.48524500  0.04201801    -0.38830
C1295       C  0.84308504  0.75577749  0.97286509    -0.05500
C1296       C  0.80802937  0.73288092  0.98219002    -0.02620
C1297       C  0.81153487  0.70695637  0.00370326     0.02370
C1298       C  0.85006482  0.70445779  0.01711152    -0.05500
C1299       C  0.88531523  0.72750731  0.00780353    -0.02600
C1300       C  0.88192896  0.75278016  0.98560667     0.02370
C1301       C  0.76754957  0.73722917  0.97001774     0.37020
C1302       C  0.92458708  0.72620616  0.02146978     0.37010
C1303       C  0.91828017  0.77577778  0.97588565     0.35430
C1304       C  0.77462387  0.68321251  0.01212493     0.35430
N1305       N  0.94725995  0.79424099  0.96809494    -0.39390
N1306       N  0.74484528  0.66468469  0.01861326    -0.39390
N1307       N  0.95596921  0.72516952  0.03240372    -0.38830
N1308       N  0.73534362  0.74117895  0.96038046    -0.38830
C1309       C  0.68772866  0.52482448  0.22738891    -0.05500
C1310       C  0.70398226  0.50758068  0.24990240    -0.02620
C1311       C  0.67989955  0.50751743  0.27299015     0.02370
C1312       C  0.63898710  0.52466841  0.27396176    -0.05500
C1313       C  0.62083332  0.53647626  0.25055618    -0.02600
C1314       C  0.64470598  0.53577021  0.22749076     0.02370
C1315       C  0.74550475  0.49011641  0.24968071     0.37020
C1316       C  0.57832853  0.55173743  0.25009911     0.37010
C1317       C  0.62482107  0.54711084  0.20368478     0.35430
C1318       C  0.69770837  0.48959514  0.29576331     0.35430
N1319       N  0.60895101  0.55612766  0.18472754    -0.39390
N1320       N  0.71209652  0.47524812  0.31385896    -0.39390
N1321       N  0.54445801  0.56399554  0.24954073    -0.38830
N1322       N  0.77816443  0.47505648  0.25002898    -0.38830
C1323       C  0.86444568  0.63629032  0.24442787    -0.05500
C1324       C  0.87027129  0.59378563  0.25136966    -0.02620
C1325       C  0.89924625  0.58386173  0.27036584     0.02370
C1326       C  0.92203987  0.61628686  0.28272905    -0.05500
C1327       C  0.91104090  0.65882591  0.27863020    -0.02600
C1328       C  0.88206263  0.66859660  0.25950361     0.02370
C1329       C  0.85044693  0.55979515  0.23680341     0.37020
C1330       C  0.93051504  0.69297986  0.29323213     0.37010
C1331       C  0.87291164  0.71185806  0.25393732     0.35430
C1332       C  0.90833226  0.54029862  0.27536843     0.35430
N1333       N  0.86543946  0.74636542  0.24956254    -0.39390
N1334       N  0.91562451  0.50557143  0.27925200    -0.39390
N1335       N  0.94650652  0.72014109  0.30471866    -0.38830
N1336       N  0.83615043  0.53262761  0.22458158    -0.38830
C1337       C  0.75262390  0.97897677  0.96538315    -0.05500
C1338       C  0.79467697  0.99145751  0.97169702    -0.02620
C1339       C  0.80306870  0.01524005  0.99407496     0.02370
C1340       C  0.76993155  0.02609534  0.01044330    -0.05500
C1341       C  0.72775492  0.01839019  0.00245817    -0.02600
C1342       C  0.71922907  0.99487650  0.97996626     0.02370
C1343       C  0.83004518  0.97752569  0.95632596     0.37020
C1344       C  0.69277126  0.03235347  0.01815296     0.37010
C1345       C  0.67623885  0.98390289  0.97323263     0.35430
C1346       C  0.84599635  0.02546154  0.00133043     0.35430
N1347       N  0.64192753  0.97509139  0.96796676    -0.39390
N1348       N  0.88022212  0.03363120  0.00710127    -0.39390
N1349       N  0.66499329  0.04260155  0.03102989    -0.38830
N1350       N  0.85829072  0.96535306  0.94453404    -0.38830
C1351       C  0.68254783  0.19888847  0.02038960    -0.05500
C1352       C  0.69972524  0.24017796  0.01794380    -0.02620
C1353       C  0.70295687  0.25944581  0.99380445     0.02370
C1354       C  0.68419559  0.24051418  0.97188874    -0.05500
C1355       C  0.66257194  0.20141747  0.97485215    -0.02600
C1356       C  0.66218640  0.18049666  0.99884361     0.02370
C1357       C  0.71424631  0.26356415  0.04043412     0.37020
C1358       C  0.64040266  0.18262554  0.95328851     0.37010
C1359       C  0.64044674  0.14036360  0.00111987     0.35430
C1360       C  0.72896554  0.29725488  0.99149117     0.35430
N1361       N  0.62221029  0.10867193  0.00253888    -0.39390
N1362       N  0.75044452  0.32687672  0.98978714    -0.39390
N1363       N  0.62259414  0.16761809  0.93610882    -0.38830
N1364       N  0.72573806  0.28232370  0.05828500    -0.38830
C1365       C  0.73324187  0.90335703  0.13316685    -0.05500
C1366       C  0.76030070  0.88578855  0.11440651    -0.02620
C1367       C  0.77001912  0.84261076  0.11482815     0.02370
C1368       C  0.75292196  0.81598968  0.13402062    -0.05500
C1369       C  0.72687739  0.83388542  0.15325734    -0.02600
C1370       C  0.71707793  0.87705722  0.15277593     0.02370
C1371       C  0.77961946  0.91237636  0.09503618     0.37020
C1372       C  0.70858142  0.80781033  0.17321412     0.37010
C1373       C  0.68873416  0.89386663  0.17204968     0.35430
C1374       C  0.79890751  0.82599234  0.09579142     0.35430
N1375       N  0.66607851  0.90712332  0.18743993    -0.39390
N1376       N  0.82201291  0.81283675  0.08062140    -0.39390
N1377       N  0.69397697  0.78724074  0.18924479    -0.38830
N1378       N  0.79517056  0.93351155  0.07960417    -0.38830
C1379       C  0.80900323  0.39971288  0.11928481    -0.05500
C1380       C  0.76856948  0.38114495  0.12242432    -0.02620
C1381       C  0.76327479  0.33693642  0.12429969     0.02370
C1382       C  0.79838862  0.31068116  0.12342630    -0.05500
C1383       C  0.83878560  0.32917013  0.11995239    -0.02600
C1384       C  0.84406300  0.37336590  0.11790052     0.02370
C1385       C  0.73229069  0.40770147  0.12371378     0.37020
C1386       C  0.87509606  0.30262840  0.11884566     0.37010
C1387       C  0.88578861  0.39185735  0.11502058     0.35430
C1388       C  0.72157143  0.31836359  0.12704812     0.35430
N1389       N  0.91910905  0.40661134  0.11274923    -0.39390
N1390       N  0.68829253  0.30346073  0.12917499    -0.39390
N1391       N  0.90403321  0.28137982  0.11802780    -0.38830
N1392       N  0.70341171  0.42901735  0.12470375    -0.38830
C1393       C  0.69184999  0.12478496  0.24643658    -0.05500
C1394       C  0.67941401  0.08139849  0.24707465    -0.02620
C1395       C  0.65961164  0.06421776  0.26897365     0.02370
C1396       C  0.64960502  0.09022575  0.28982956    -0.05500
C1397       C  0.66055043  0.13383760  0.28874994    -0.02600
C1398       C  0.68408712  0.15022758  0.26797530     0.02370
C1399       C  0.68267531  0.05452867  0.22448503     0.37020
C1400       C  0.63963700  0.16349857  0.30552613     0.37010
C1401       C  0.69464582  0.19472606  0.26705293     0.35430
C1402       C  0.64460681  0.02075459  0.26872676     0.35430
N1403       N  0.70288159  0.23022655  0.26620561    -0.39390
N1404       N  0.63255491  0.98622760  0.26847892    -0.39390
N1405       N  0.62060106  0.18756990  0.31732043    -0.38830
N1406       N  0.68326455  0.03228456  0.20678116    -0.38830
C1407       C  0.83863727  0.03781345  0.23939208    -0.05500
C1408       C  0.88299053  0.03575754  0.23859414    -0.02620
C1409       C  0.90722762  0.04224017  0.26098916     0.02370
C1410       C  0.88758515  0.05092775  0.28471580    -0.05500
C1411       C  0.84331038  0.04805254  0.28623642    -0.02600
C1412       C  0.81918589  0.03972250  0.26383508     0.02370
C1413       C  0.90392985  0.02612006  0.21463210     0.37020
C1414       C  0.82240080  0.05666741  0.31047859     0.37010
C1415       C  0.77503160  0.03033462  0.26640182     0.35430
C1416       C  0.95264418  0.04076987  0.25953569     0.35430
N1417       N  0.74037359  0.02023200  0.26944592    -0.39390
N1418       N  0.98886378  0.03939104  0.25842405    -0.39390
N1419       N  0.80582253  0.06408884  0.32978593    -0.38830
N1420       N  0.92119690  0.01774972  0.19575703    -0.38830
C1421       C  0.33552853  0.54830576  0.01392410    -0.05500
C1422       C  0.30090261  0.51918077  0.01255343    -0.02620
C1423       C  0.29800661  0.48933030  0.99273237     0.02370
C1424       C  0.32103365  0.49484862  0.96972322    -0.05500
C1425       C  0.35363329  0.52627869  0.96959770    -0.02600
C1426       C  0.36206078  0.55144265  0.99207621     0.02370
C1427       C  0.26567198  0.52071605  0.03049409     0.37020
C1428       C  0.37898297  0.53246394  0.94675857     0.37010
C1429       C  0.39753192  0.58057918  0.99258704     0.35430
C1430       C  0.27203298  0.45186743  0.99704301     0.35430
N1431       N  0.42593746  0.60384786  0.99300746    -0.39390
N1432       N  0.25169652  0.42197425  0.00076825    -0.39390
N1433       N  0.39940882  0.53751527  0.92855904    -0.38830
N1434       N  0.23744358  0.52173482  0.04458793    -0.38830
C1435       C  0.26403718  0.70851237  0.01121858    -0.05500
C1436       C  0.28515719  0.74841657  0.00891444    -0.02620
C1437       C  0.30747669  0.75880475  0.98647073     0.02370
C1438       C  0.30032340  0.73565532  0.96378881    -0.05500
C1439       C  0.27653853  0.69757090  0.96526807    -0.02600
C1440       C  0.26088035  0.68272010  0.98910589     0.02370
C1441       C  0.28194065  0.78076446  0.02877780     0.37020
C1442       C  0.26369264  0.67580242  0.94212836     0.37010
C1443       C  0.23926139  0.64227671  0.99027841     0.35430
C1444       C  0.33291094  0.79731916  0.98564027     0.35430
N1445       N  0.22200075  0.60997243  0.99107832    -0.39390
N1446       N  0.35299988  0.82800634  0.98501076    -0.39390
N1447       N  0.25147849  0.65754564  0.92435026    -0.38830
N1448       N  0.27938039  0.80675537  0.04439095    -0.38830
C1449       C  0.49961030  0.65772303  0.12622258    -0.05500
C1450       C  0.52764584  0.68721048  0.13767005    -0.02620
C1451       C  0.57116010  0.67996769  0.13764865     0.02370
C1452       C  0.58706696  0.64293061  0.12644036    -0.05500
C1453       C  0.55914769  0.61328683  0.11511675    -0.02600
C1454       C  0.51554446  0.62062895  0.11499744     0.02370
C1455       C  0.51193376  0.72589348  0.14864692     0.37020
C1456       C  0.57523764  0.57468455  0.10425581     0.37010
C1457       C  0.48695771  0.58923714  0.10416315     0.35430
C1458       C  0.59980109  0.71160584  0.14822017     0.35430
N1459       N  0.46415044  0.56409197  0.09560920    -0.39390
N1460       N  0.62273096  0.73688489  0.15649231    -0.39390
N1461       N  0.58818595  0.54385862  0.09569511    -0.38830
N1462       N  0.49945570  0.75680956  0.15735441    -0.38830
C1463       C  0.09197751  0.59604644  0.12941407    -0.05500
C1464       C  0.06782635  0.61560959  0.14894233    -0.02620
C1465       C  0.02340039  0.61179819  0.14900112     0.02370
C1466       C  0.00234847  0.58869415  0.12943153    -0.05500
C1467       C  0.02654021  0.56855626  0.11018302    -0.02600
C1468       C  0.07085563  0.57210937  0.11019045     0.02370
C1469       C  0.08843457  0.64104871  0.16860548     0.37020
C1470       C  0.00606753  0.54246632  0.09076259     0.37010
C1471       C  0.09456747  0.54943082  0.09080437     0.35430
C1472       C  0.99938452  0.63298771  0.16883893     0.35430
N1473       N  0.11335546  0.53125884  0.07534413    -0.39390
N1474       N  0.98029651  0.64988455  0.18470199    -0.39390
N1475       N  0.98993652  0.52155857  0.07526352    -0.38830
N1476       N  0.10481997  0.66137435  0.18429074    -0.38830
C1477       C  0.21132144  0.70109103  0.24048468    -0.05500
C1478       C  0.18169964  0.73246292  0.24523545    -0.02620
C1479       C  0.15723817  0.73191383  0.26808337     0.02370
C1480       C  0.16234150  0.69993638  0.28630735    -0.05500
C1481       C  0.19340955  0.66973401  0.28201614    -0.02600
C1482       C  0.21810199  0.67074801  0.25945980     0.02370
C1483       C  0.17543857  0.76439663  0.22624696     0.37020
C1484       C  0.19763960  0.63534412  0.29971186     0.37010
C1485       C  0.24970233  0.63935503  0.25525707     0.35430
C1486       C  0.12656936  0.76405033  0.27273081     0.35430
N1487       N  0.27490009  0.61439313  0.25170272    -0.39390
N1488       N  0.10210449  0.78973811  0.27644627    -0.39390
N1489       N  0.20067946  0.60761754  0.31362109    -0.38830
N1490       N  0.17052739  0.79009450  0.21118340    -0.38830
C1491       C  0.40061076  0.59234087  0.23247883    -0.05500
C1492       C  0.43959279  0.61475497  0.23296937    -0.02620
C1493       C  0.45433911  0.63296043  0.25590264     0.02370
C1494       C  0.43346535  0.62434714  0.27916119    -0.05500
C1495       C  0.39815698  0.59631959  0.27908232    -0.02600
C1496       C  0.38142782  0.58083160  0.25576132     0.02370
C1497       C  0.46473318  0.61897996  0.20970503     0.37020
C1498       C  0.38130399  0.58006284  0.30294265     0.37010
C1499       C  0.34617505  0.55128821  0.25584863     0.35430
C1500       C  0.49263894  0.65861714  0.25579562     0.35430
N1501       N  0.31834177  0.52731878  0.25602585    -0.39390
N1502       N  0.52313577  0.67903636  0.25570721    -0.39390
N1503       N  0.36785378  0.56552057  0.32154854    -0.38830
N1504       N  0.48496263  0.62218993  0.19126971    -0.38830
C1505       C  0.27025196  0.94819295  0.98110243    -0.05500
C1506       C  0.30161798  0.98025684  0.97858210    -0.02620
C1507       C  0.31352756  0.00587237  0.99993360     0.02370
C1508       C  0.29586351  0.99838806  0.02438121    -0.05500
C1509       C  0.26851141  0.96288611  0.02724418    -0.02600
C1510       C  0.25647318  0.93759395  0.00589713     0.02370
C1511       C  0.32273987  0.98606905  0.95417349     0.37020
C1512       C  0.24843821  0.95446677  0.05156640     0.37010
C1513       C  0.22751019  0.90227071  0.00933386     0.35430
C1514       C  0.34124220  0.04204228  0.99630214     0.35430
N1515       N  0.20461910  0.87395997  0.01212494    -0.39390
N1516       N  0.36304899  0.07114371  0.99335697    -0.39390
N1517       N  0.23031741  0.94620807  0.07013301    -0.38830
N1518       N  0.34064584  0.99029376  0.93497102    -0.38830
C1519       C  0.20001837  0.28281275  0.98314329    -0.05500
C1520       C  0.23587588  0.27708671  0.99822004    -0.02620
C1521       C  0.23585703  0.24518254  0.01677753     0.02370
C1522       C  0.20002154  0.21886775  0.02038131    -0.05500
C1523       C  0.16424458  0.22452069  0.00534456    -0.02600
C1524       C  0.16425774  0.25622425  0.98675177     0.02370
C1525       C  0.27333674  0.30275137  0.99384500     0.37020
C1526       C  0.12721389  0.19797766  0.00925814     0.37010
C1527       C  0.12751167  0.26109298  0.97091230     0.35430
C1528       C  0.27302292  0.23861468  0.03193409     0.35430
N1529       N  0.09833976  0.26492518  0.95817899    -0.39390
N1530       N  0.30252761  0.23285291  0.04405038    -0.39390
N1531       N  0.09773535  0.17672113  0.01237770    -0.38830
N1532       N  0.30323953  0.32322334  0.99032747    -0.38830
C1533       C  0.27633805  0.83827738  0.12309764    -0.05500
C1534       C  0.23680581  0.84823723  0.13379063    -0.02620
C1535       C  0.22344835  0.89033594  0.13448717     0.02370
C1536       C  0.24997020  0.92260926  0.12494616    -0.05500
C1537       C  0.28905660  0.91195367  0.11343620    -0.02600
C1538       C  0.30172805  0.87005047  0.11222493     0.02370
C1539       C  0.20984935  0.81501394  0.14384781     0.37020
C1540       C  0.31759406  0.94400892  0.10343149     0.37010
C1541       C  0.34224790  0.85997356  0.10099328     0.35430
C1542       C  0.18346257  0.90065414  0.14604973     0.35430
N1543       N  0.37451711  0.85200302  0.09207374    -0.39390
N1544       N  0.15151644  0.90890072  0.15529546    -0.39390
N1545       N  0.34147056  0.96877837  0.09578082    -0.38830
N1546       N  0.18846487  0.78822328  0.15169254    -0.38830
C1547       C  0.28114629  0.34121108  0.12308657    -0.05500
C1548       C  0.29208794  0.36513587  0.10155967    -0.02620
C1549       C  0.29623846  0.40912950  0.10379606     0.02370
C1550       C  0.28726630  0.42985435  0.12751448    -0.05500
C1551       C  0.27805381  0.40514086  0.14939631    -0.02600
C1552       C  0.27508835  0.36106750  0.14709775     0.02370
C1553       C  0.29919258  0.34446421  0.07701213     0.37020
C1554       C  0.27073468  0.42435577  0.17435659     0.37010
C1555       C  0.26430511  0.33603704  0.16939395     0.35430
C1556       C  0.31096138  0.43238164  0.08158982     0.35430
N1557       N  0.25568258  0.31601540  0.18710307    -0.39390
N1558       N  0.32295079  0.45042780  0.06376376    -0.39390
N1559       N  0.26498167  0.43928374  0.19439135    -0.38830
N1560       N  0.30489522  0.32847682  0.05729586    -0.38830
C1561       C  0.46366906  0.15639259  0.12611076    -0.05500
C1562       C  0.49066322  0.15831048  0.10472111    -0.02620
C1563       C  0.53304627  0.14683817  0.10681801     0.02370
C1564       C  0.54843346  0.13040783  0.13016040    -0.05500
C1565       C  0.52174351  0.13164911  0.15213118    -0.02600
C1566       C  0.48003457  0.14569247  0.15014026     0.02370
C1567       C  0.47447036  0.17193167  0.08035103     0.37020
C1568       C  0.53593333  0.11684515  0.17666732     0.37010
C1569       C  0.45335570  0.14808687  0.17274415     0.35430
C1570       C  0.56034361  0.15267356  0.08468872     0.35430
N1571       N  0.43202276  0.15098894  0.19070455    -0.39390
N1572       N  0.58166068  0.15778075  0.06687697    -0.39390
N1573       N  0.54689851  0.10496275  0.19632047    -0.38830
N1574       N  0.46151780  0.18287766  0.06095872    -0.38830
C1575       C  0.95488993  0.10514008  0.12052793    -0.05500
C1576       C  0.97911983  0.13763191  0.10928537    -0.02620
C1577       C  0.02312948  0.13668274  0.11006671     0.02370
C1578       C  0.04316140  0.10404638  0.12301532    -0.05500
C1579       C  0.01899508  0.07004293  0.13264411    -0.02600
C1580       C  0.97483254  0.07013728  0.13073674     0.02370
C1581       C  0.95881263  0.17239227  0.09713131     0.37020
C1582       C  0.03936600  0.03569592  0.14507585     0.37010
C1583       C  0.95004104  0.03313817  0.13733395     0.35430
C1584       C  0.04773681  0.16886184  0.09690497     0.35430
N1585       N  0.93021905  0.00314206  0.14161970    -0.39390
N1586       N  0.06735317  0.19431608  0.08626913    -0.39390
N1587       N  0.05562416  0.00837650  0.15511370    -0.38830
N1588       N  0.94261863  0.19996556  0.08731775    -0.38830
C1589       C  0.15683990  0.18242277  0.22647786    -0.05500
C1590       C  0.12986163  0.21527309  0.23367514    -0.02620
C1591       C  0.10007398  0.20955739  0.25358093     0.02370
C1592       C  0.09687949  0.17092336  0.26633109    -0.05500
C1593       C  0.12228243  0.13742419  0.25830684    -0.02600
C1594       C  0.15187485  0.14298502  0.23825713     0.02370
C1595       C  0.13296609  0.25519988  0.22067785     0.37020
C1596       C  0.11739291  0.09699681  0.27055504     0.37010
C1597       C  0.17545698  0.10753788  0.22880975     0.35430
C1598       C  0.07358325  0.24385071  0.26152356     0.35430
N1599       N  0.19396209  0.07915138  0.22110253    -0.39390
N1600       N  0.05234002  0.27111736  0.26786396    -0.39390
N1601       N  0.11328706  0.06476948  0.28033190    -0.38830
N1602       N  0.13536534  0.28698287  0.21024269    -0.38830
C1603       C  0.41554738  0.11663090  0.27135444    -0.05500
C1604       C  0.43278560  0.09128209  0.25144528    -0.02620
C1605       C  0.40772087  0.07812157  0.23014536     0.02370
C1606       C  0.36486716  0.08850730  0.22920846    -0.05500
C1607       C  0.34685388  0.10897795  0.25063306    -0.02600
C1608       C  0.37217626  0.12592624  0.27022553     0.02370
C1609       C  0.47620411  0.07908420  0.25254064     0.37020
C1610       C  0.30170617  0.11465678  0.25205350     0.37010
C1611       C  0.35289135  0.15496065  0.28832454     0.35430
C1612       C  0.42637701  0.05536393  0.20888874     0.35430
N1613       N  0.33712685  0.17802147  0.30255561    -0.39390
N1614       N  0.44134893  0.03722226  0.19190143    -0.39390
N1615       N  0.26593345  0.11959287  0.25356597    -0.38830
N1616       N  0.51086469  0.06918839  0.25339776    -0.38830
loop_ 
_geom_bond_atom_site_label_1 
_geom_bond_atom_site_label_2 
_geom_bond_distance 
_geom_bond_site_symmetry_2 
_ccdc_geom_bond_type 
N1            N2   1.313       .  A
N1            N7   1.313       .  A
N1          Mn30   2.141       .  S
N2            C9   1.341       .  A
N3            N5   1.312       .  A
N3            N4   1.318       .  A
N3          Mn19   2.176       .  S
N4           C10   1.349       .  A
N5            N6   1.321       .  A
N5          Mn30   2.194       .  S
N6           C10   1.352       .  A
N7            N8   1.329       .  A
N7          Mn19   2.256       .  S
N8            C9   1.364       .  A
C9         C1589   1.483       .  S
C10        C1547   1.473       .  S
N11          N17   1.323       .  A
N11          N12   1.318       .  A
N11         Mn41   2.194       .  S
N12          C20   1.347       .  A
N13          N14   1.305       .  A
N13          N15   1.313       .  A
N13         Mn19   2.125       .  S
N14          C21   1.339       .  A
N15          N16   1.336       .  A
N15         Mn41   2.263       .  S
N16          C21   1.367       .  A
N17          N18   1.326       .  A
N17         Mn19   2.249       .  S
N18          C20   1.357       .  A
Mn19        Cl43   2.524       .  S
C20        C1561   1.488       .  S
C21        C1606   1.495       .  S
N22          N23   1.311       .  A
N22          N28   1.316       .  A
N22         Mn30   2.142       .  S
N23          C31   1.339       .  A
N24          N26   1.314       .  A
N24          N25   1.323       .  A
N24         Mn42   2.196       .  S
N25          C32   1.354       .  A
N26          N27   1.316       .  A
N26         Mn30   2.184       .  S
N27          C32   1.348       .  A
N28          N29   1.329       .  A
N28         Mn42   2.259       .  S
N29          C31   1.363       .  A
Mn30        Cl43   2.550       .  S
C31        C1522   1.478       .  S
C32        C1578   1.479       .  S
N33          N34   1.310   1_545  A
N33          N39   1.320       .  A
N33         Mn41   2.159       .  S
N34          C44   1.339       .  A
N35          N36   1.314       .  A
N35          N37   1.318       .  A
N35         Mn42   2.145       .  S
N36          C45   1.337       .  A
N37          N38   1.336       .  A
N37         Mn41   2.298       .  S
N38          C45   1.368       .  A
N39          N40   1.331   1_545  A
N39         Mn42   2.278       .  S
N40          C44   1.366       .  A
Mn41        Cl43   2.542       .  S
Mn42        Cl43   2.536       .  S
C44        C1536   1.492       .  S
C45        C1508   1.502   1_545  S
N46          N47   1.315       .  A
N46          N52   1.311       .  A
N46         Mn75   2.182       .  S
N47          C54   1.349       .  A
N48          N50   1.319       .  A
N48          N49   1.323       .  A
N48         Mn64   2.233       .  S
N49          C55   1.356       .  A
N50          N51   1.321       .  A
N50         Mn75   2.210       .  S
N51          C55   1.356       .  A
N52          N53   1.322       .  A
N52         Mn64   2.192       .  S
N53          C54   1.358       .  A
C54        C1550   1.498       .  S
C55        C1463   1.503       .  S
N56          N62   1.317       .  A
N56          N57   1.330       .  A
N56         Mn86   2.248       .  S
N57          C65   1.362       .  A
N58          N59   1.331       .  A
N58          N60   1.313       .  A
N58         Mn64   2.248       .  S
N59          C66   1.369       .  A
N60          N61   1.299       .  A
N60         Mn86   2.114       .  S
N61          C66   1.334       .  A
N62          N63   1.314       .  A
N62         Mn64   2.173       .  S
N63          C65   1.344       .  A
Mn64        Cl88   2.546       .  S
C65        C1477   1.490       .  S
C66        C1491   1.480       .  S
N67          N68   1.336       .  A
N67          N73   1.309       .  A
N67         Mn75   2.274       .  S
N68          C76   1.373       .  A
N69          N71   1.311       .  A
N69          N70   1.342       .  A
N69         Mn87   2.293       .  S
N70          C77   1.375       .  A
N71          N72   1.303       .  A
N71         Mn75   2.153       .  S
N72          C77   1.334       .  A
N73          N74   1.297       .  A
N73         Mn87   2.099       .  S
N74          C76   1.327       .  A
Mn75        Cl88   2.507       .  S
C76        C1435   1.503       .  S
C77        C1421   1.520       .  S
N78          N79   1.322       .  A
N78          N84   1.315       .  A
N78         Mn86   2.234       .  S
N79          C89   1.355       .  A
N80          N81   1.321       .  A
N80          N82   1.312       .  A
N80         Mn87   2.216       .  S
N81          C90   1.353       .  A
N82          N83   1.320       .  A
N82         Mn86   2.163       .  S
N83          C90   1.351       .  A
N84          N85   1.322       .  A
N84         Mn87   2.185       .  S
N85          C89   1.353       .  A
Mn86        Cl88   2.518       .  S
Mn87        Cl88   2.529       .  S
C89        C1449   1.490       .  S
C90        C1533   1.480       .  S
N91          N92   1.321       .  A
N91          N97   1.317       .  A
N91        Mn120   2.219       .  S
N92          C99   1.353       .  A
N93          N95   1.320       .  A
N93          N94   1.324       .  A
N93        Mn109   2.226       .  S
N94         C100   1.352       .  A
N95          N96   1.328       .  A
N95        Mn120   2.241       .  S
N96         C100   1.359       .  A
N97          N98   1.318       .  A
N97        Mn109   2.182       .  S
N98          C99   1.350       .  A
C99        C1575   1.476       .  S
C100       C1382   1.502       .  S
N101        N107   1.315       .  A
N101        N102   1.336       .  A
N101       Mn131   2.282       .  S
N102        C110   1.370       .  A
N103        N104   1.329       .  A
N103        N105   1.317       .  A
N103       Mn109   2.240       .  S
N104        C111   1.361       .  A
N105        N106   1.307       .  A
N105       Mn131   2.138       .  S
N106        C111   1.334       .  A
N107        N108   1.310       .  A
N107       Mn109   2.150       .  S
N108        C110   1.343       .  A
Mn109      Cl133   2.537       .  S
C110       C1351   1.511       .  S
C111       C1340   1.483       .  S
N112        N113   1.332       .  A
N112        N118   1.318       .  A
N112       Mn120   2.258       .  S
N113        C121   1.363       .  A
N114        N116   1.316       .  A
N114        N115   1.339       .  A
N114       Mn132   2.315       .  S
N115        C122   1.370       .  A
N116        N117   1.316       .  A
N116       Mn120   2.158       .  S
N117        C122   1.345       .  A
N118        N119   1.307       .  A
N118       Mn132   2.161       .  S
N119        C121   1.331       .  A
Mn120      Cl133   2.557       .  S
C121       C1393   1.490       .  S
C122       C1407   1.516       .  S
N123        N124   1.325   1_545  A
N123        N129   1.315       .  A
N123       Mn131   2.236       .  S
N124        C134   1.358       .  A
N125        N126   1.327       .  A
N125        N127   1.311       .  A
N125       Mn132   2.242       .  S
N126        C135   1.362       .  A
N127        N128   1.317       .  A
N127       Mn131   2.165       .  S
N128        C135   1.351       .  A
N129        N130   1.323   1_545  A
N129       Mn132   2.200       .  S
N130        C134   1.356       .  A
Mn131      Cl133   2.536       .  S
Mn132      Cl133   2.508       .  S
C134       C1365   1.507       .  S
C135       C1564   1.513       .  S
N136        N137   1.311       .  A
N136        N142   1.318       .  A
N136       Mn165   2.158       .  S
N137        C144   1.338       .  A
N138        N140   1.317       .  A
N138        N139   1.304       .  A
N138       Mn154   2.113       .  S
N139        C145   1.331       .  A
N140        N141   1.331       .  A
N140       Mn165   2.260       .  S
N141        C145   1.363       .  A
N142        N143   1.337       .  A
N142       Mn154   2.292       .  S
N143        C144   1.371       .  A
C144       C1298   1.503       .  S
C145       C1281   1.469       .  S
N146        N152   1.316       .  A
N146        N147   1.322       .  A
N146       Mn176   2.186       .  S
N147        C155   1.351       .  A
N148        N149   1.320       .  A
N148        N150   1.314       .  A
N148       Mn154   2.185       .  S
N149        C156   1.354       .  A
N150        N151   1.325       .  A
N150       Mn176   2.240       .  S
N151        C156   1.358       .  A
N152        N153   1.330       .  A
N152       Mn154   2.270       .  S
N153        C155   1.362       .  A
Mn154      Cl178   2.557       .  S
C155       C1379   1.502       .  S
C156       C1466   1.502   1_655  S
N157        N158   1.323       .  A
N157        N163   1.317       .  A
N157       Mn165   2.202       .  S
N158        C166   1.354       .  A
N159        N161   1.316       .  A
N159        N160   1.325       .  A
N159       Mn177   2.213       .  S
N160        C167   1.358       .  A
N161        N162   1.322       .  A
N161       Mn165   2.224       .  S
N162        C167   1.355       .  A
N163        N164   1.320       .  A
N163       Mn177   2.211       .  S
N164        C166   1.352       .  A
Mn165      Cl178   2.527       .  S
C166       C1452   1.486       .  S
C167       C1368   1.509       .  S
N168        N169   1.303       .  A
N168        N174   1.316       .  A
N168       Mn176   2.145       .  S
N169        C179   1.333       .  A
N170        N171   1.311       .  A
N170        N172   1.315       .  A
N170       Mn177   2.148       .  S
N171        C180   1.341       .  A
N172        N173   1.337       .  A
N172       Mn176   2.294       .  S
N173        C180   1.372       .  A
N174        N175   1.330       .  A
N174       Mn177   2.235       .  S
N175        C179   1.362       .  A
Mn176      Cl178   2.520       .  S
Mn177      Cl178   2.563       .  S
C179       C1323   1.477       .  S
C180       C1309   1.511       .  S
N181        N182   1.308       .  A
N181        N187   1.318       .  A
N181       Mn210   2.135       .  S
N182        C189   1.336       .  A
N183        N185   1.314       .  A
N183        N184   1.322       .  A
N183       Mn199   2.216       .  S
N184        C190   1.360       .  A
N185        N186   1.308       .  A
N185       Mn210   2.149       .  S
N186        C190   1.343       .  A
N187        N188   1.332       .  A
N187       Mn199   2.276       .  S
N188        C189   1.366       .  A
C189       C1519   1.480       .  S
C190       C1239   1.493       .  S
N191        N197   1.324       .  A
N191        N192   1.319       .  A
N191       Mn221   2.212       .  S
N192        C200   1.351       .  A
N193        N194   1.313       .  A
N193        N195   1.315       .  A
N193       Mn199   2.193       .  S
N194        C201   1.352       .  A
N195        N196   1.333       .  A
N195       Mn221   2.242       .  S
N196        C201   1.362       .  A
N197        N198   1.332       .  A
N197       Mn199   2.270       .  S
N198        C200   1.362       .  A
Mn199      Cl223   2.537       .  S
C200       C1253   1.511       .  S
C201       C1424   1.517       .  S
N202        N203   1.320       .  A
N202        N208   1.309       .  A
N202       Mn210   2.185       .  S
N203        C211   1.354       .  A
N204        N206   1.305       .  A
N204        N205   1.317       .  A
N204       Mn222   2.154       .  S
N205        C212   1.350       .  A
N206        N207   1.319       .  A
N206       Mn210   2.197       .  S
N207        C212   1.358       .  A
N208        N209   1.322       .  A
N208       Mn222   2.196       .  S
N209        C211   1.353       .  A
Mn210      Cl223   2.539       .  S
C211       C1197   1.484       .  S
C212       C1267   1.492       .  S
N213        N214   1.312       .  A
N213        N219   1.313       .  A
N213       Mn221   2.140       .  S
N214        C224   1.345       .  A
N215        N216   1.303       .  A
N215        N217   1.315       .  A
N215       Mn222   2.123       .  S
N216        C225   1.328       .  A
N217        N218   1.334       .  A
N217       Mn221   2.266       .  S
N218        C225   1.368       .  A
N219        N220   1.314       .  A
N219       Mn222   2.192       .  S
N220        C224   1.351       .  A
Mn221      Cl223   2.563       .  S
Mn222      Cl223   2.497       .  S
C224       C1225   1.456       .  S
C225       C1211   1.478       .  S
N226        N227   1.335       .  A
N226        N232   1.314       .  A
N226       Mn255   2.269       .  S
N227        C234   1.367       .  A
N228        N230   1.321       .  A
N228        N229   1.332       .  A
N228       Mn244   2.266       .  S
N229        C235   1.363       .  A
N230        N231   1.318       .  A
N230       Mn255   2.195       .  S
N231        C235   1.349       .  A
N232        N233   1.303       .  A
N232       Mn244   2.096       .  S
N233        C234   1.330       .  A
C234       C1438   1.474       .  S
C235       C1256   1.512       .  S
N236        N242   1.310       .  A
N236        N237   1.314       .  A
N236       Mn266   2.164       .  S
N237        C245   1.347       .  A
N238        N239   1.331       .  A
N238        N240   1.318       .  A
N238       Mn244   2.260       .  S
N239        C246   1.361       .  A
N240        N241   1.321       .  A
N240       Mn266   2.176       .  S
N241        C246   1.347       .  A
N242        N243   1.315       .  A
N242       Mn244   2.153       .  S
N243        C245   1.346       .  A
Mn244      Cl268   2.507       .  S
C245       C1186   1.451       .  S
C246       C1505   1.506       .  S
N247        N248   1.330       .  A
N247        N253   1.313       .  A
N247       Mn255   2.250       .  S
N248        C256   1.368       .  A
N249        N251   1.321       .  A
N249        N250   1.329       .  A
N249       Mn267   2.267       .  S
N250        C257   1.365       .  A
N251        N252   1.313       .  A
N251       Mn255   2.175       .  S
N252        C257   1.344       .  A
N253        N254   1.303       .  A
N253       Mn267   2.122       .  S
N254        C256   1.331       .  A
Mn255      Cl268   2.555       .  S
C256       C1155   1.469       .  S
C257       C1169   1.500       .  S
N258        N259   1.314   1_565  A
N258        N264   1.309       .  A
N258       Mn266   2.171       .  S
N259        C269   1.349       .  A
N260        N261   1.325       .  A
N260        N262   1.312       .  A
N260       Mn267   2.239       .  S
N261        C270   1.360       .  A
N262        N263   1.322       .  A
N262       Mn266   2.188       .  S
N263        C270   1.355       .  A
N264        N265   1.324   1_565  A
N264       Mn267   2.197       .  S
N265        C269   1.359       .  A
Mn266      Cl268   2.560       .  S
Mn267      Cl268   2.508       .  S
C269       C1270   1.493       .  S
C270       C1141   1.521       .  S
N271        N272   1.328       .  A
N271        N277   1.317       .  A
N271       Mn300   2.226       .  S
N272        C279   1.361       .  A
N273        N275   1.310       .  A
N273        N274   1.309       .  A
N273       Mn289   2.129       .  S
N274        C280   1.342       .  A
N275        N276   1.315       .  A
N275       Mn300   2.169       .  S
N276        C280   1.348       .  A
N277        N278   1.319       .  A
N277       Mn289   2.223       .  S
N278        C279   1.354       .  A
C279       C1354   1.510       .  S
C280       C1228   1.446       .  S
N281        N287   1.317       .  A
N281        N282   1.316       .  A
N281       Mn311   2.175       .  S
N282        C290   1.348       .  A
N283        N284   1.307       .  A
N283        N285   1.312       .  A
N283       Mn289   2.127       .  S
N284        C291   1.336       .  A
N285        N286   1.330       .  A
N285       Mn311   2.246       .  S
N286        C291   1.366       .  A
N287        N288   1.326       .  A
N287       Mn289   2.243       .  S
N288        C290   1.358       .  A
Mn289      Cl313   2.505       .  S
C290       C1113   1.483       .  S
C291       C1284   1.508       .  S
N292        N293   1.325       .  A
N292        N298   1.317       .  A
N292       Mn300   2.218       .  S
N293        C301   1.355       .  A
N294        N296   1.313       .  A
N294        N295   1.326       .  A
N294       Mn312   2.225       .  S
N295        C302   1.357       .  A
N296        N297   1.322       .  A
N296       Mn300   2.200       .  S
N297        C302   1.353       .  A
N298        N299   1.326       .  A
N298       Mn312   2.233       .  S
N299        C301   1.359       .  A
Mn300      Cl313   2.564       .  S
C301       C1088   1.532       .  S
C302       C1127   1.496       .  S
N303        N304   1.310       .  A
N303        N309   1.320       .  A
N303       Mn311   2.172       .  S
N304        C314   1.344       .  A
N305        N306   1.316       .  A
N305        N307   1.316       .  A
N305       Mn312   2.177       .  S
N306        C315   1.345       .  A
N307        N308   1.330       .  A
N307       Mn311   2.240       .  S
N308        C315   1.360       .  A
N309        N310   1.320       .  A
N309       Mn312   2.228       .  S
N310        C314   1.360       .  A
Mn311      Cl313   2.554       .  S
Mn312      Cl313   2.519       .  S
C314       C1242   1.497       .  S
C315       C1099   1.492       .  S
N316        N317   1.330       .  A
N316        N322   1.316       .  A
N316       Mn345   2.257       .  S
N317        C324   1.364       .  A
N318        N320   1.317       .  A
N318        N319   1.333       .  A
N318       Mn334   2.277       .  S
N319        C325   1.365   1_565  A
N320        N321   1.317       .  A
N320       Mn345   2.170       .  S
N321        C325   1.348   1_565  A
N322        N323   1.305       .  A
N322       Mn334   2.130       .  S
N323        C324   1.335       .  A
C324       C1337   1.487       .  S
C325       C1130   1.512       .  S
N326        N332   1.313       .  A
N326        N327   1.321       .  A
N326       Mn356   2.205       .  S
N327        C335   1.356       .  A
N328        N329   1.330       .  A
N328        N330   1.315       .  A
N328       Mn334   2.265       .  S
N329        C336   1.363       .  A
N330        N331   1.318       .  A
N330       Mn356   2.168       .  S
N331        C336   1.348       .  A
N332        N333   1.307       .  A
N332       Mn334   2.143       .  S
N333        C335   1.342       .  A
Mn334      Cl358   2.496       .  S
C335       C1183   1.467       .  S
C336       C1295   1.495       .  S
N337        N338   1.333       .  A
N337        N343   1.316       .  A
N337       Mn345   2.264       .  S
N338        C346   1.366       .  A
N339        N341   1.321       .  A
N339        N340   1.329       .  A
N339       Mn357   2.270       .  S
N340        C347   1.362       .  A
N341        N342   1.315       .  A
N341       Mn345   2.161       .  S
N342        C347   1.341       .  A
N343        N344   1.308       .  A
N343       Mn357   2.142       .  S
N344        C346   1.336       .  A
Mn345      Cl358   2.571       .  S
C346       C1057   1.486       .  S
C347       C1172   1.489       .  S
N348        N349   1.323       .  A
N348        N354   1.316       .  A
N348       Mn356   2.215       .  S
N349        C359   1.356       .  A
N350        N351   1.328       .  A
N350        N352   1.314       .  A
N350       Mn357   2.245       .  S
N351        C360   1.361       .  A
N352        N353   1.317       .  A
N352       Mn356   2.167       .  S
N353        C360   1.346       .  A
N354        N355   1.320       .  A
N354       Mn357   2.198       .  S
N355        C359   1.351       .  A
Mn356      Cl358   2.574       .  S
Mn357      Cl358   2.503       .  S
C359       C1116   1.491       .  S
C360       C1071   1.489       .  S
N361        N362   1.319       .  A
N361        N367   1.315       .  A
N361       Mn390   2.185       .  S
N362        C369   1.350       .  A
N363        N365   1.315       .  A
N363        N364   1.317       .  A
N363       Mn379   2.182       .  S
N364        C370   1.348       .  A
N365        N366   1.319       .  A
N365       Mn390   2.197   1_455  S
N366        C370   1.352       .  A
N367        N368   1.327       .  A
N367       Mn379   2.247   1_655  S
N368        C369   1.363       .  A
C369       C1102   1.505       .  S
C370       C1004   1.466       .  S
N371        N377   1.317       .  A
N371        N372   1.312       .  A
N371       Mn401   2.181       .  S
N372        C380   1.347       .  A
N373        N374   1.312       .  A
N373        N375   1.314       .  A
N373       Mn379   2.164       .  S
N374        C381   1.346       .  A
N375        N376   1.328       .  A
N375       Mn401   2.243       .  S
N376        C381   1.364       .  A
N377        N378   1.328       .  A
N377       Mn379   2.238       .  S
N378        C380   1.360       .  A
Mn379      Cl403   2.543       .  S
C380       C1043   1.491       .  S
C381       C1200   1.512       .  S
N382        N383   1.319       .  A
N382        N388   1.312       .  A
N382       Mn390   2.191       .  S
N383        C391   1.354       .  A
N384        N386   1.311       .  A
N384        N385   1.320       .  A
N384       Mn402   2.165       .  S
N385        C392   1.352       .  A
N386        N387   1.313       .  A
N386       Mn390   2.197       .  S
N387        C392   1.355       .  A
N388        N389   1.321       .  A
N388       Mn402   2.211       .  S
N389        C391   1.358       .  A
Mn390      Cl403   2.539   1_655  S
C391        C973   1.507       .  S
C392       C1029   1.489       .  S
N393        N394   1.316       .  A
N393        N399   1.315   1_455  A
N393       Mn401   2.180       .  S
N394        C404   1.352   1_455  A
N395        N396   1.311       .  A
N395        N397   1.315       .  A
N395       Mn402   2.167   1_455  S
N396        C405   1.345       .  A
N397        N398   1.327       .  A
N397       Mn401   2.229       .  S
N398        C405   1.359       .  A
N399        N400   1.321       .  A
N399       Mn402   2.210       .  S
N400        C404   1.355       .  A
Mn401      Cl403   2.542       .  S
Mn402      Cl403   2.536   1_655  S
C404       C1018   1.490       .  S
C405        C987   1.488       .  S
N406        N407   1.328       .  A
N406        N412   1.316       .  A
N406       Mn435   2.237       .  S
N407        C414   1.360       .  A
N408        N410   1.323       .  A
N408        N409   1.318       .  A
N408       Mn424   2.215       .  S
N409        C415   1.349       .  A
N410        N411   1.317       .  A
N410       Mn435   2.200       .  S
N411        C415   1.350       .  A
N412        N413   1.317       .  A
N412       Mn424   2.183       .  S
N413        C414   1.349       .  A
C414       C1074   1.519       .  S
C415        C948   1.464       .  S
N416        N422   1.311   1_455  A
N416        N417   1.319   1_565  A
N416       Mn446   2.186       .  S
N417        C425   1.351   1_455  A
N418        N419   1.326       .  A
N418        N420   1.316       .  A
N418       Mn424   2.247   1_455  S
N419        C426   1.364       .  A
N420        N421   1.318       .  A
N420       Mn446   2.197       .  S
N421        C426   1.353       .  A
N422        N423   1.321   1_565  A
N422       Mn424   2.191       .  S
N423        C425   1.351       .  A
Mn424      Cl448   2.512   1_655  S
C425       C1015   1.474       .  S
C426       C1144   1.523       .  S
N427        N428   1.337       .  A
N427        N433   1.311       .  A
N427       Mn435   2.267       .  S
N428        C436   1.368       .  A
N429        N431   1.315       .  A
N429        N430   1.324       .  A
N429       Mn447   2.245       .  S
N430        C437   1.359       .  A
N431        N432   1.310       .  A
N431       Mn435   2.143   1_455  S
N432        C437   1.347       .  A
N433        N434   1.310   1_655  A
N433       Mn447   2.165   1_655  S
N434        C436   1.335   1_455  A
Mn435      Cl448   2.573   1_655  S
C436        C934   1.507   1_655  S
C437       C1001   1.486       .  S
N438        N439   1.323       .  A
N438        N444   1.311       .  A
N438       Mn446   2.214       .  S
N439        C449   1.357       .  A
N440        N441   1.320       .  A
N440        N442   1.315       .  A
N440       Mn447   2.186       .  S
N441        C450   1.346       .  A
N442        N443   1.324       .  A
N442       Mn446   2.204       .  S
N443        C450   1.353       .  A
N444        N445   1.317       .  A
N444       Mn447   2.161       .  S
N445        C449   1.347       .  A
Mn446      Cl448   2.556       .  S
Mn447      Cl448   2.482       .  S
C449        C959   1.474       .  S
C450        C920   1.483       .  S
N451        N452   1.335       .  A
N451        N457   1.312       .  A
N451       Mn480   2.272       .  S
N452        C459   1.369       .  A
N453        N455   1.317       .  A
N453        N454   1.328       .  A
N453       Mn469   2.256       .  S
N454        C460   1.363       .  A
N455        N456   1.315       .  A
N455       Mn480   2.181       .  S
N456        C460   1.350       .  A
N457        N458   1.305       .  A
N457       Mn469   2.112       .  S
N458        C459   1.329       .  A
C459       C1214   1.482       .  S
C460       C1046   1.501       .  S
N461        N467   1.306       .  A
N461        N462   1.314       .  A
N461       Mn491   2.161       .  S
N462        C470   1.350       .  A
N463        N464   1.328       .  A
N463        N465   1.310       .  A
N463       Mn469   2.237       .  S
N464        C471   1.362       .  A
N465        N466   1.323       .  A
N465       Mn491   2.195       .  S
N466        C471   1.355       .  A
N467        N468   1.316       .  A
N467       Mn469   2.148       .  S
N468        C470   1.348       .  A
Mn469      Cl493   2.518       .  S
C470        C889   1.453       .  S
C471       C1085   1.528       .  S
N472        N473   1.327       .  A
N472        N478   1.320       .  A
N472       Mn480   2.237       .  S
N473        C481   1.357       .  A
N474        N476   1.325       .  A
N474        N475   1.319       .  A
N474       Mn492   2.229       .  S
N475        C482   1.352       .  A
N476        N477   1.321       .  A
N476       Mn480   2.217       .  S
N477        C482   1.353       .  A
N478        N479   1.320       .  A
N478       Mn492   2.197       .  S
N479        C481   1.350       .  A
Mn480      Cl493   2.546       .  S
C481        C875   1.497       .  S
C482        C906   1.483       .  S
N483        N484   1.302       .  A
N483        N489   1.308       .  A
N483       Mn491   2.133       .  S
N484        C494   1.339       .  A
N485        N486   1.329       .  A
N485        N487   1.317       .  A
N485       Mn492   2.254       .  S
N486        C495   1.365       .  A
N487        N488   1.314       .  A
N487       Mn491   2.175       .  S
N488        C495   1.344       .  A
N489        N490   1.329       .  A
N489       Mn492   2.213       .  S
N490        C494   1.364       .  A
Mn491      Cl493   2.532       .  S
Mn492      Cl493   2.539       .  S
C494       C1032   1.495       .  S
C495        C861   1.494       .  S
N496        N497   1.323       .  A
N496        N502   1.317       .  A
N496       Mn525   2.186       .  S
N497        C504   1.352       .  A
N498        N500   1.308       .  A
N498        N499   1.318       .  A
N498       Mn514   2.152       .  S
N499        C505   1.349       .  A
N500        N501   1.313       .  A
N500       Mn525   2.172       .  S
N501        C505   1.349       .  A
N502        N503   1.321       .  A
N502       Mn514   2.212       .  S
N503        C504   1.349       .  A
C504       C1060   1.490       .  S
C505        C892   1.457       .  S
N506        N512   1.320       .  A
N506        N507   1.312       .  A
N506       Mn536   2.179       .  S
N507        C515   1.347       .  A
N508        N509   1.300       .  A
N508        N510   1.312       .  A
N508       Mn514   2.107       .  S
N509        C516   1.328       .  A
N510        N511   1.333       .  A
N510       Mn536   2.249       .  S
N511        C516   1.368       .  A
N512        N513   1.326       .  A
N512       Mn514   2.238       .  S
N513        C515   1.359       .  A
Mn514      Cl538   2.477       .  S
C515        C962   1.490       .  S
C516       C1158   1.474       .  S
N517        N518   1.322       .  A
N517        N523   1.315       .  A
N517       Mn525   2.178       .  S
N518        C526   1.350       .  A
N519        N521   1.307       .  A
N519        N520   1.315       .  A
N519       Mn537   2.149       .  S
N520        C527   1.348       .  A
N521        N522   1.318       .  A
N521       Mn525   2.185       .  S
N522        C527   1.354       .  A
N523        N524   1.322       .  A
N523       Mn537   2.213       .  S
N524        C526   1.350       .  A
Mn525      Cl538   2.553       .  S
C526        C847   1.486       .  S
C527        C945   1.479       .  S
N528        N529   1.318   1_565  A
N528        N534   1.320       .  A
N528       Mn536   2.193       .  S
N529        C539   1.350       .  A
N530        N531   1.298       .  A
N530        N532   1.309       .  A
N530       Mn537   2.100       .  S
N531        C540   1.329       .  A
N532        N533   1.334       .  A
N532       Mn536   2.247       .  S
N533        C540   1.370       .  A
N534        N535   1.320       .  A
N534       Mn537   2.224       .  S
N535        C539   1.354   1_565  A
Mn536      Cl538   2.583       .  S
Mn537      Cl538   2.466       .  S
C539        C903   1.481       .  S
C540        C833   1.477       .  S
N541        N542   1.313       .  A
N541        N547   1.319       .  A
N541       Mn570   2.161       .  S
N542        C549   1.342       .  A
N543        N545   1.316   1_655  A
N543        N544   1.324       .  A
N543       Mn559   2.224       .  S
N544        C550   1.361   1_655  A
N545        N546   1.308       .  A
N545       Mn570   2.150       .  S
N546        C550   1.341       .  A
N547        N548   1.328       .  A
N547       Mn559   2.256   1_455  S
N548        C549   1.361       .  A
C549       C1592   1.479       .  S
C550        C819   1.482       .  S
N551        N557   1.324       .  A
N551        N552   1.322       .  A
N551       Mn581   2.215       .  S
N552        C560   1.353       .  A
N553        N554   1.321       .  A
N553        N555   1.319       .  A
N553       Mn559   2.203       .  S
N554        C561   1.350       .  A
N555        N556   1.329       .  A
N555       Mn581   2.253       .  S
N556        C561   1.360       .  A
N557        N558   1.330       .  A
N557       Mn559   2.273       .  S
N558        C560   1.363       .  A
Mn559      Cl583   2.536   1_655  S
C560        C777   1.520       .  S
C561       C1410   1.500       .  S
N562        N563   1.323       .  A
N562        N568   1.307       .  A
N562       Mn570   2.196       .  S
N563        C571   1.356       .  A
N564        N566   1.308       .  A
N564        N565   1.316       .  A
N564       Mn582   2.167       .  S
N565        C572   1.349       .  A
N566        N567   1.324       .  A
N566       Mn570   2.210       .  S
N567        C572   1.360       .  A
N568        N569   1.315       .  A
N568       Mn582   2.169       .  S
N569        C571   1.350       .  A
Mn570      Cl583   2.554       .  S
C571        C990   1.480       .  S
C572        C791   1.493       .  S
N573        N574   1.316   1_545  A
N573        N579   1.312   1_655  A
N573       Mn581   2.165       .  S
N574        C584   1.354   1_655  A
N575        N576   1.309       .  A
N575        N577   1.316   1_455  A
N575       Mn582   2.171       .  S
N576        C585   1.336   1_455  A
N577        N578   1.334       .  A
N577       Mn581   2.265       .  S
N578        C585   1.367       .  A
N579        N580   1.312   1_545  A
N579       Mn582   2.170       .  S
N580        C584   1.343       .  A
Mn581      Cl583   2.580   1_655  S
Mn582      Cl583   2.483       .  S
C584        C805   1.472       .  S
C585        C917   1.499       .  S
N586        N587   1.321       .  A
N586        N592   1.317       .  A
N586       Mn615   2.204       .  S
N587        C594   1.354       .  A
N588        N590   1.309       .  A
N588        N589   1.309       .  A
N588       Mn604   2.128       .  S
N589        C595   1.342       .  A
N590        N591   1.316       .  A
N590       Mn615   2.185       .  S
N591        C595   1.355       .  A
N592        N593   1.324       .  A
N592       Mn604   2.230       .  S
N593        C594   1.356       .  A
C594       C1480   1.492       .  S
C595        C808   1.477       .  S
N596        N602   1.314       .  A
N596        N597   1.311       .  A
N596       Mn626   2.152       .  S
N597        C605   1.347       .  A
N598        N599   1.310   1_455  A
N598        N600   1.317   1_455  A
N598       Mn604   2.147       .  S
N599        C606   1.337       .  A
N600        N601   1.324       .  A
N600       Mn626   2.213       .  S
N601        C606   1.354       .  A
N602        N603   1.329       .  A
N602       Mn604   2.245   1_655  S
N603        C605   1.362       .  A
Mn604      Cl628   2.507       .  S
C605        C749   1.490       .  S
C606       C1326   1.483       .  S
N607        N608   1.323       .  A
N607        N613   1.319       .  A
N607       Mn615   2.209       .  S
N608        C616   1.352       .  A
N609        N611   1.311       .  A
N609        N610   1.329       .  A
N609       Mn627   2.225       .  S
N610        C617   1.362       .  A
N611        N612   1.318       .  A
N611       Mn615   2.199       .  S
N612        C617   1.354       .  A
N613        N614   1.325       .  A
N613       Mn627   2.212       .  S
N614        C616   1.350       .  A
Mn615      Cl628   2.543       .  S
C616        C931   1.491       .  S
C617        C763   1.522       .  S
N618        N619   1.308       .  A
N618        N624   1.318       .  A
N618       Mn626   2.163   1_455  S
N619        C629   1.342       .  A
N620        N621   1.315       .  A
N620        N622   1.313   1_455  A
N620       Mn627   2.172       .  S
N621        C630   1.345   1_455  A
N622        N623   1.326       .  A
N622       Mn626   2.214       .  S
N623        C630   1.357       .  A
N624        N625   1.322       .  A
N624       Mn627   2.222       .  S
N625        C629   1.360       .  A
Mn626      Cl628   2.531   1_655  S
Mn627      Cl628   2.533       .  S
C629        C822   1.493       .  S
C630        C976   1.477       .  S
N631        N632   1.331       .  A
N631        N637   1.313       .  A
N631       Mn660   2.266       .  S
N632        C639   1.365       .  A
N633        N635   1.317       .  A
N633        N634   1.334       .  A
N633       Mn649   2.301       .  S
N634        C640   1.365       .  A
N635        N636   1.321       .  A
N635       Mn660   2.177       .  S
N636        C640   1.353       .  A
N637        N638   1.304       .  A
N637       Mn649   2.122       .  S
N638        C639   1.330       .  A
C639       C1396   1.481       .  S
C640        C780   1.527       .  S
N641        N647   1.312       .  A
N641        N642   1.315       .  A
N641       Mn671   2.180       .  S
N642        C650   1.350       .  A
N643        N644   1.334       .  A
N643        N645   1.310       .  A
N643       Mn649   2.247       .  S
N644        C651   1.366       .  A
N645        N646   1.309       .  A
N645       Mn671   2.144       .  S
N646        C651   1.343       .  A
N647        N648   1.312       .  A
N647       Mn649   2.146       .  S
N648        C650   1.344       .  A
Mn649      Cl673   2.489       .  S
C650        C735   1.448       .  S
C651       C1603   1.509       .  S
N652        N653   1.335       .  A
N652        N658   1.314       .  A
N652       Mn660   2.277       .  S
N653        C661   1.374       .  A
N654        N656   1.321       .  A
N654        N655   1.334   1_545  A
N654       Mn672   2.290       .  S
N655        C662   1.370       .  A
N656        N657   1.310   1_545  A
N656       Mn660   2.157       .  S
N657        C662   1.338       .  A
N658        N659   1.298       .  A
N658       Mn672   2.105       .  S
N659        C661   1.326       .  A
Mn660      Cl673   2.567       .  S
C661        C836   1.477       .  S
C662        C724   1.502       .  S
N663        N664   1.315       .  A
N663        N669   1.312       .  A
N663       Mn671   2.188       .  S
N664        C674   1.349       .  A
N665        N666   1.328       .  A
N665        N667   1.310       .  A
N665       Mn672   2.251       .  S
N666        C675   1.363       .  A
N667        N668   1.319       .  A
N667       Mn671   2.171       .  S
N668        C675   1.352       .  A
N669        N670   1.324       .  A
N669       Mn672   2.196       .  S
N670        C674   1.358       .  A
Mn671      Cl673   2.551       .  S
Mn672      Cl673   2.499       .  S
C674        C794   1.485       .  S
C675        C878   1.516       .  S
N676        N677   1.331       .  A
N676        N682   1.314       .  A
N676       Mn705   2.267       .  S
N677        C684   1.365       .  A
N678        N680   1.319       .  A
N678        N679   1.334       .  A
N678       Mn694   2.282       .  S
N679        C685   1.365       .  A
N680        N681   1.315       .  A
N680       Mn705   2.165       .  S
N681        C685   1.344       .  A
N682        N683   1.302       .  A
N682       Mn694   2.089       .  S
N683        C684   1.329       .  A
C684       C1494   1.464       .  S
C685        C766   1.504       .  S
N686        N692   1.313       .  A
N686        N687   1.321       .  A
N686       Mn716   2.205       .  S
N687        C695   1.355       .  A
N688        N689   1.330       .  A
N688        N690   1.314       .  A
N688       Mn694   2.274       .  S
N689        C696   1.366       .  A
N690        N691   1.319       .  A
N690       Mn716   2.167       .  S
N691        C696   1.350       .  A
N692        N693   1.307       .  A
N692       Mn694   2.135       .  S
N693        C695   1.342       .  A
Mn694      Cl718   2.504       .  S
C695        C738   1.462       .  S
C696       C1312   1.516       .  S
N697        N698   1.334       .  A
N697        N703   1.315       .  A
N697       Mn705   2.265       .  S
N698        C706   1.367       .  A
N699        N701   1.316       .  A
N699        N700   1.329       .  A
N699       Mn717   2.281       .  S
N700        C707   1.368       .  A
N701        N702   1.312       .  A
N701       Mn705   2.144       .  S
N702        C707   1.342       .  A
N703        N704   1.309       .  A
N703       Mn717   2.146       .  S
N704        C706   1.338       .  A
Mn705      Cl718   2.556       .  S
C706        C850   1.490       .  S
C707        C721   1.517       .  S
N708        N709   1.322       .  A
N708        N714   1.315       .  A
N708       Mn716   2.211       .  S
N709        C719   1.355       .  A
N710        N711   1.330       .  A
N710        N712   1.313       .  A
N710       Mn717   2.260       .  S
N711        C720   1.366       .  A
N712        N713   1.314       .  A
N712       Mn716   2.150       .  S
N713        C720   1.344       .  A
N714        N715   1.318       .  A
N714       Mn717   2.184       .  S
N715        C719   1.348       .  A
Mn716      Cl718   2.565       .  S
Mn717      Cl718   2.502       .  S
C719        C752   1.477       .  S
C720        C864   1.506       .  S
C721        C722   1.434       .  A
C721        C726   1.415       .  A
C722        C723   1.418       .  A
C722        C727   1.452       .  S
C723        C724   1.405       .  A
C723        C730   1.452       .  S
C724        C725   1.425       .  A
C725        C726   1.415       .  A
C725        C728   1.453       .  S
C726        C729   1.452       .  S
C727        N734   1.158       .  T
C728        N733   1.158       .  T
C729        N731   1.158       .  T
C730        N732   1.157       .  T
C735        C736   1.407       .  A
C735        C740   1.404       .  A
C736        C737   1.405       .  A
C736        C741   1.450       .  S
C737        C738   1.408       .  A
C737        C744   1.448       .  S
C738        C739   1.418       .  A
C739        C740   1.394       .  A
C739        C742   1.455       .  S
C740        C743   1.456       .  S
C741        N748   1.157       .  T
C742        N747   1.158       .  T
C743        N745   1.157       .  T
C744        N746   1.156       .  T
C749        C750   1.416       .  A
C749        C754   1.417       .  A
C750        C751   1.416       .  A
C750        C755   1.446       .  S
C751        C752   1.408       .  A
C751        C758   1.450       .  S
C752        C753   1.409       .  A
C753        C754   1.406       .  A
C753        C756   1.453       .  S
C754        C757   1.453       .  S
C755        N762   1.156       .  T
C756        N761   1.157       .  T
C757        N759   1.157       .  T
C758        N760   1.157       .  T
C763        C764   1.427       .  A
C763        C768   1.424       .  A
C764        C765   1.426       .  A
C764        C769   1.449       .  S
C765        C766   1.410       .  A
C765        C772   1.449       .  S
C766        C767   1.417       .  A
C767        C768   1.412       .  A
C767        C770   1.455       .  S
C768        C771   1.454       .  S
C769        N776   1.158       .  T
C770        N775   1.157       .  T
C771        N773   1.158       .  T
C772        N774   1.157       .  T
C777        C778   1.418       .  A
C777        C782   1.419       .  A
C778        C779   1.422       .  A
C778        C783   1.451       .  S
C779        C780   1.421       .  A
C779        C786   1.451       .  S
C780        C781   1.421       .  A
C781        C782   1.426       .  A
C781        C784   1.445       .  S
C782        C785   1.451       .  S
C783        N790   1.157       .  T
C784        N789   1.156       .  T
C785        N787   1.158       .  T
C786        N788   1.157       .  T
C791        C792   1.413       .  A
C791        C796   1.423       .  A
C792        C793   1.409       .  A
C792        C797   1.449       .  S
C793        C794   1.408       .  A
C793        C800   1.448       .  S
C794        C795   1.410       .  A
C795        C796   1.413       .  A
C795        C798   1.451       .  S
C796        C799   1.452       .  S
C797        N804   1.157       .  T
C798        N803   1.157       .  T
C799        N801   1.158       .  T
C800        N802   1.156       .  T
C805        C806   1.417       .  A
C805        C810   1.408       .  A
C806        C807   1.399       .  A
C806        C811   1.451       .  S
C807        C808   1.410       .  A
C807        C814   1.455       .  S
C808        C809   1.425       .  A
C809        C810   1.402       .  A
C809        C812   1.454   1_455  S
C810        C813   1.456   1_455  S
C811        N818   1.157       .  T
C812        N817   1.158       .  T
C813        N815   1.158       .  T
C814        N816   1.158       .  T
C819        C820   1.408   1_455  A
C819        C824   1.417       .  A
C820        C821   1.407   1_655  A
C820        C825   1.453       .  S
C821        C822   1.426       .  A
C821        C828   1.454   1_455  S
C822        C823   1.416       .  A
C823        C824   1.406       .  A
C823        C826   1.453       .  S
C824        C827   1.455       .  S
C825        N832   1.158       .  T
C826        N831   1.158       .  T
C827        N829   1.157       .  T
C828        N830   1.158       .  T
C833        C834   1.408   1_565  A
C833        C838   1.418       .  A
C834        C835   1.415       .  A
C834        C839   1.450       .  S
C835        C836   1.423       .  A
C835        C842   1.451       .  S
C836        C837   1.409   1_545  A
C837        C838   1.409       .  A
C837        C840   1.447       .  S
C838        C841   1.455       .  S
C839        N846   1.157       .  T
C840        N845   1.156       .  T
C841        N843   1.158       .  T
C842        N844   1.157       .  T
C847        C848   1.402       .  A
C847        C852   1.416       .  A
C848        C849   1.406       .  A
C848        C853   1.454       .  S
C849        C850   1.420       .  A
C849        C856   1.443       .  S
C850        C851   1.410       .  A
C851        C852   1.419       .  A
C851        C854   1.448       .  S
C852        C855   1.448       .  S
C853        N860   1.157       .  T
C854        N859   1.157       .  T
C855        N857   1.157       .  T
C856        N858   1.153       .  T
C861        C862   1.417       .  A
C861        C866   1.407       .  A
C862        C863   1.416       .  A
C862        C867   1.451       .  S
C863        C864   1.416       .  A
C863        C870   1.451       .  S
C864        C865   1.426       .  A
C865        C866   1.416       .  A
C865        C868   1.452       .  S
C866        C869   1.452       .  S
C867        N874   1.157       .  T
C868        N873   1.157       .  T
C869        N871   1.157       .  T
C870        N872   1.158       .  T
C875        C876   1.414       .  A
C875        C880   1.409       .  A
C876        C877   1.421       .  A
C876        C881   1.450       .  S
C877        C878   1.421       .  A
C877        C884   1.450       .  S
C878        C879   1.426       .  A
C879        C880   1.414       .  A
C879        C882   1.449       .  S
C880        C883   1.454       .  S
C881        N888   1.157       .  T
C882        N887   1.157       .  T
C883        N885   1.157       .  T
C884        N886   1.157       .  T
C889        C890   1.407       .  A
C889        C894   1.408       .  A
C890        C891   1.406       .  A
C890        C895   1.450       .  S
C891        C892   1.408       .  A
C891        C898   1.449       .  S
C892        C893   1.411       .  A
C893        C894   1.395       .  A
C893        C896   1.454       .  S
C894        C897   1.455       .  S
C895        N902   1.157       .  T
C896        N901   1.157       .  T
C897        N899   1.157       .  T
C898        N900   1.157       .  T
C903        C904   1.414       .  A
C903        C908   1.412       .  A
C904        C905   1.408       .  A
C904        C909   1.452       .  S
C905        C906   1.415       .  A
C905        C912   1.452       .  S
C906        C907   1.412       .  A
C907        C908   1.412       .  A
C907        C910   1.450       .  S
C908        C911   1.451       .  S
C909        N916   1.157       .  T
C910        N915   1.157       .  T
C911        N913   1.157       .  T
C912        N914   1.157       .  T
C917        C918   1.411       .  A
C917        C922   1.429   1_655  A
C918        C919   1.421   1_545  A
C918        C923   1.448       .  S
C919        C920   1.415   1_655  A
C919        C926   1.449       .  S
C920        C921   1.401       .  A
C921        C922   1.406   1_565  A
C921        C924   1.454       .  S
C922        C925   1.451       .  S
C923        N930   1.157       .  T
C924        N929   1.157       .  T
C925        N927   1.156       .  T
C926        N928   1.157       .  T
C931        C932   1.418   1_455  A
C931        C936   1.402       .  A
C932        C933   1.424       .  A
C932        C937   1.449       .  S
C933        C934   1.413   1_655  A
C933        C940   1.448       .  S
C934        C935   1.430       .  A
C935        C936   1.409       .  A
C935        C938   1.452       .  S
C936        C939   1.454       .  S
C937        N944   1.157       .  T
C938        N943   1.157       .  T
C939        N941   1.157       .  T
C940        N942   1.157       .  T
C945        C946   1.421       .  A
C945        C950   1.413       .  A
C946        C947   1.407       .  A
C946        C951   1.452       .  S
C947        C948   1.403       .  A
C947        C954   1.452       .  S
C948        C949   1.409       .  A
C949        C950   1.404       .  A
C949        C952   1.452       .  S
C950        C953   1.452       .  S
C951        N958   1.158       .  T
C952        N957   1.157       .  T
C953        N955   1.157       .  T
C954        N956   1.157       .  T
C959        C960   1.407       .  A
C959        C964   1.409       .  A
C960        C961   1.406       .  A
C960        C965   1.453       .  S
C961        C962   1.418       .  A
C961        C968   1.453       .  S
C962        C963   1.419       .  A
C963        C964   1.415       .  A
C963        C966   1.450       .  S
C964        C967   1.451       .  S
C965        N972   1.157       .  T
C966        N971   1.157       .  T
C967        N969   1.157       .  T
C968        N970   1.157       .  T
C973        C974   1.423       .  A
C973        C978   1.425       .  A
C974        C975   1.412       .  A
C974        C979   1.451       .  S
C975        C976   1.409       .  A
C975        C982   1.453       .  S
C976        C977   1.404       .  A
C977        C978   1.413       .  A
C977        C980   1.451       .  S
C978        C981   1.451       .  S
C979        N986   1.158       .  T
C980        N985   1.157       .  T
C981        N983   1.158       .  T
C982        N984   1.157       .  T
C987        C988   1.419       .  A
C987        C992   1.413       .  A
C988        C989   1.402       .  A
C988        C993   1.454       .  S
C989        C990   1.410       .  A
C989        C996   1.455       .  S
C990        C991   1.412       .  A
C991        C992   1.417       .  A
C991        C994   1.449       .  S
C992        C995   1.449       .  S
C993       N1000   1.157   1_455  T
C994        N999   1.157       .  T
C995        N997   1.157       .  T
C996        N998   1.157   1_455  T
C1001      C1002   1.419       .  A
C1001      C1006   1.418       .  A
C1002      C1003   1.403       .  A
C1002      C1007   1.454       .  S
C1003      C1004   1.406       .  A
C1003      C1010   1.454       .  S
C1004      C1005   1.406       .  A
C1005      C1006   1.411       .  A
C1005      C1008   1.451       .  S
C1006      C1009   1.449       .  S
C1007      N1014   1.158       .  T
C1008      N1013   1.157       .  T
C1009      N1011   1.157       .  T
C1010      N1012   1.157   1_455  T
C1015      C1016   1.408   1_655  A
C1015      C1020   1.407       .  A
C1016      C1017   1.407   1_455  A
C1016      C1021   1.453       .  S
C1017      C1018   1.417       .  A
C1017      C1024   1.452   1_655  S
C1018      C1019   1.419       .  A
C1019      C1020   1.411       .  A
C1019      C1022   1.451       .  S
C1020      C1023   1.449       .  S
C1021      N1028   1.157       .  T
C1022      N1027   1.157       .  T
C1023      N1025   1.157       .  T
C1024      N1026   1.158       .  T
C1029      C1030   1.420       .  A
C1029      C1034   1.404       .  A
C1030      C1031   1.419       .  A
C1030      C1035   1.450       .  S
C1031      C1032   1.418       .  A
C1031      C1038   1.450       .  S
C1032      C1033   1.425       .  A
C1033      C1034   1.390       .  A
C1033      C1036   1.453       .  S
C1034      C1037   1.454       .  S
C1035      N1042   1.158       .  T
C1036      N1041   1.158       .  T
C1037      N1039   1.157       .  T
C1038      N1040   1.158       .  T
C1043      C1044   1.414       .  A
C1043      C1048   1.412       .  A
C1044      C1045   1.403       .  A
C1044      C1049   1.456       .  S
C1045      C1046   1.422       .  A
C1045      C1052   1.455       .  S
C1046      C1047   1.417       .  A
C1047      C1048   1.421       .  A
C1047      C1050   1.448       .  S
C1048      C1051   1.449       .  S
C1049      N1056   1.158       .  T
C1050      N1055   1.157       .  T
C1051      N1053   1.157       .  T
C1052      N1054   1.158       .  T
C1057      C1058   1.408       .  A
C1057      C1062   1.419       .  A
C1058      C1059   1.418       .  A
C1058      C1063   1.449       .  S
C1059      C1060   1.418       .  A
C1059      C1066   1.448       .  S
C1060      C1061   1.407       .  A
C1061      C1062   1.407       .  A
C1061      C1064   1.454       .  S
C1062      C1065   1.448       .  S
C1063      N1070   1.157       .  T
C1064      N1069   1.157       .  T
C1065      N1067   1.155       .  T
C1066      N1068   1.157       .  T
C1071      C1072   1.408       .  A
C1071      C1076   1.408       .  A
C1072      C1073   1.413       .  A
C1072      C1077   1.455       .  S
C1073      C1074   1.430       .  A
C1073      C1080   1.452       .  S
C1074      C1075   1.426       .  A
C1075      C1076   1.421       .  A
C1075      C1078   1.450       .  S
C1076      C1079   1.450       .  S
C1077      N1084   1.158       .  T
C1078      N1083   1.158       .  T
C1079      N1081   1.157       .  T
C1080      N1082   1.158       .  T
C1085      C1086   1.419       .  A
C1085      C1090   1.418       .  A
C1086      C1087   1.422       .  A
C1086      C1091   1.448       .  S
C1087      C1088   1.424       .  A
C1087      C1094   1.452       .  S
C1088      C1089   1.429       .  A
C1089      C1090   1.425       .  A
C1089      C1092   1.451       .  S
C1090      C1093   1.449       .  S
C1091      N1098   1.156       .  T
C1092      N1097   1.157       .  T
C1093      N1095   1.157       .  T
C1094      N1096   1.158       .  T
C1099      C1100   1.408       .  A
C1099      C1104   1.414       .  A
C1100      C1101   1.419       .  A
C1100      C1105   1.450       .  S
C1101      C1102   1.424       .  A
C1101      C1108   1.450       .  S
C1102      C1103   1.415       .  A
C1103      C1104   1.414       .  A
C1103      C1106   1.449       .  S
C1104      C1107   1.452       .  S
C1105      N1112   1.157       .  T
C1106      N1111   1.157       .  T
C1107      N1109   1.157       .  T
C1108      N1110   1.157       .  T
C1113      C1114   1.408       .  A
C1113      C1118   1.411       .  A
C1114      C1115   1.413       .  A
C1114      C1119   1.451       .  S
C1115      C1116   1.419       .  A
C1115      C1122   1.451       .  S
C1116      C1117   1.412       .  A
C1117      C1118   1.413       .  A
C1117      C1120   1.450       .  S
C1118      C1121   1.447       .  S
C1119      N1126   1.157       .  T
C1120      N1125   1.157       .  T
C1121      N1123   1.156       .  T
C1122      N1124   1.157       .  T
C1127      C1128   1.411       .  A
C1127      C1132   1.410       .  A
C1128      C1129   1.422       .  A
C1128      C1133   1.450       .  S
C1129      C1130   1.420       .  A
C1129      C1136   1.445       .  S
C1130      C1131   1.421       .  A
C1131      C1132   1.416       .  A
C1131      C1134   1.451       .  S
C1132      C1135   1.451       .  S
C1133      N1140   1.157       .  T
C1134      N1139   1.157       .  T
C1135      N1137   1.157       .  T
C1136      N1138   1.156       .  T
C1141      C1142   1.424       .  A
C1141      C1146   1.419       .  A
C1142      C1143   1.420       .  A
C1142      C1147   1.450       .  S
C1143      C1144   1.420       .  A
C1143      C1150   1.452       .  S
C1144      C1145   1.427       .  A
C1145      C1146   1.420       .  A
C1145      C1148   1.453       .  S
C1146      C1149   1.453       .  S
C1147      N1154   1.157       .  T
C1148      N1153   1.158       .  T
C1149      N1151   1.158       .  T
C1150      N1152   1.157       .  T
C1155      C1156   1.415       .  A
C1155      C1160   1.412       .  A
C1156      C1157   1.414       .  A
C1156      C1161   1.451       .  S
C1157      C1158   1.414       .  A
C1157      C1164   1.450       .  S
C1158      C1159   1.417       .  A
C1159      C1160   1.407       .  A
C1159      C1162   1.455       .  S
C1160      C1163   1.454       .  S
C1161      N1168   1.157       .  T
C1162      N1167   1.157       .  T
C1163      N1165   1.158       .  T
C1164      N1166   1.157       .  T
C1169      C1170   1.424       .  A
C1169      C1174   1.414       .  A
C1170      C1171   1.414       .  A
C1170      C1175   1.452       .  S
C1171      C1172   1.405       .  A
C1171      C1178   1.451       .  S
C1172      C1173   1.419       .  A
C1173      C1174   1.414       .  A
C1173      C1176   1.452       .  S
C1174      C1177   1.451       .  S
C1175      N1182   1.158       .  T
C1176      N1181   1.157       .  T
C1177      N1179   1.158       .  T
C1178      N1180   1.157       .  T
C1183      C1184   1.421       .  A
C1183      C1188   1.410       .  A
C1184      C1185   1.395   1_655  A
C1184      C1189   1.455       .  S
C1185      C1186   1.403       .  A
C1185      C1192   1.456       .  S
C1186      C1187   1.407       .  A
C1187      C1188   1.407   1_455  A
C1187      C1190   1.450       .  S
C1188      C1191   1.451       .  S
C1189      N1196   1.158       .  T
C1190      N1195   1.157       .  T
C1191      N1193   1.157       .  T
C1192      N1194   1.157       .  T
C1197      C1198   1.406       .  A
C1197      C1202   1.408       .  A
C1198      C1199   1.409       .  A
C1198      C1203   1.456       .  S
C1199      C1200   1.431       .  A
C1199      C1206   1.453       .  S
C1200      C1201   1.424       .  A
C1201      C1202   1.418       .  A
C1201      C1204   1.450       .  S
C1202      C1205   1.451       .  S
C1203      N1210   1.157       .  T
C1204      N1209   1.158       .  T
C1205      N1207   1.157       .  T
C1206      N1208   1.158       .  T
C1211      C1212   1.403       .  A
C1211      C1216   1.418       .  A
C1212      C1213   1.413       .  A
C1212      C1217   1.452       .  S
C1213      C1214   1.416       .  A
C1213      C1220   1.433       .  S
C1214      C1215   1.405       .  A
C1215      C1216   1.413       .  A
C1215      C1218   1.452       .  S
C1216      C1219   1.442       .  S
C1217      N1224   1.157       .  T
C1218      N1223   1.157       .  T
C1219      N1221   1.153       .  T
C1220      N1222   1.150       .  T
C1225      C1226   1.417       .  A
C1225      C1230   1.407       .  A
C1226      C1227   1.397       .  A
C1226      C1231   1.454       .  S
C1227      C1228   1.403       .  A
C1227      C1234   1.455       .  S
C1228      C1229   1.411       .  A
C1229      C1230   1.399       .  A
C1229      C1232   1.453       .  S
C1230      C1233   1.453       .  S
C1231      N1238   1.158       .  T
C1232      N1237   1.157       .  T
C1233      N1235   1.157       .  T
C1234      N1236   1.157       .  T
C1239      C1240   1.423       .  A
C1239      C1244   1.413       .  A
C1240      C1241   1.405   1_455  A
C1240      C1245   1.455       .  S
C1241      C1242   1.414       .  A
C1241      C1248   1.454       .  S
C1242      C1243   1.428       .  A
C1243      C1244   1.410   1_655  A
C1243      C1246   1.454       .  S
C1244      C1247   1.454       .  S
C1245      N1252   1.158       .  T
C1246      N1251   1.158       .  T
C1247      N1249   1.158       .  T
C1248      N1250   1.158       .  T
C1253      C1254   1.417       .  A
C1253      C1258   1.418       .  A
C1254      C1255   1.428       .  A
C1254      C1259   1.448       .  S
C1255      C1256   1.417       .  A
C1255      C1262   1.448       .  S
C1256      C1257   1.421       .  A
C1257      C1258   1.414       .  A
C1257      C1260   1.455       .  S
C1258      C1261   1.454       .  S
C1259      N1266   1.157       .  T
C1260      N1265   1.158       .  T
C1261      N1263   1.158       .  T
C1262      N1264   1.157       .  T
C1267      C1268   1.410       .  A
C1267      C1272   1.419       .  A
C1268      C1269   1.407       .  A
C1268      C1273   1.453       .  S
C1269      C1270   1.419       .  A
C1269      C1276   1.452       .  S
C1270      C1271   1.416       .  A
C1271      C1272   1.413       .  A
C1271      C1274   1.451       .  S
C1272      C1275   1.452       .  S
C1273      N1280   1.158       .  T
C1274      N1279   1.158       .  T
C1275      N1277   1.158       .  T
C1276      N1278   1.157       .  T
C1281      C1282   1.398       .  A
C1281      C1286   1.415   1_554  A
C1282      C1283   1.409   1_554  A
C1282      C1287   1.455       .  S
C1283      C1284   1.435       .  A
C1283      C1290   1.453       .  S
C1284      C1285   1.418       .  A
C1285      C1286   1.414       .  A
C1285      C1288   1.451       .  S
C1286      C1289   1.452       .  S
C1287      N1294   1.157       .  T
C1288      N1293   1.158       .  T
C1289      N1291   1.157       .  T
C1290      N1292   1.158       .  T
C1295      C1296   1.407       .  A
C1295      C1300   1.416       .  A
C1296      C1297   1.410   1_556  A
C1296      C1301   1.454       .  S
C1297      C1298   1.423       .  A
C1297      C1304   1.452       .  S
C1298      C1299   1.414       .  A
C1299      C1300   1.426   1_554  A
C1299      C1302   1.448       .  S
C1300      C1303   1.448       .  S
C1301      N1308   1.157       .  T
C1302      N1307   1.157       .  T
C1303      N1305   1.157       .  T
C1304      N1306   1.157       .  T
C1309      C1310   1.411       .  A
C1309      C1314   1.423       .  A
C1310      C1311   1.423       .  A
C1310      C1315   1.448       .  S
C1311      C1312   1.426       .  A
C1311      C1318   1.451       .  S
C1312      C1313   1.415       .  A
C1313      C1314   1.418       .  A
C1313      C1316   1.451       .  S
C1314      C1317   1.453       .  S
C1315      N1322   1.157       .  T
C1316      N1321   1.158       .  T
C1317      N1319   1.158       .  T
C1318      N1320   1.158       .  T
C1323      C1324   1.424       .  A
C1323      C1328   1.398       .  A
C1324      C1325   1.405       .  A
C1324      C1329   1.451       .  S
C1325      C1326   1.403       .  A
C1325      C1332   1.453       .  S
C1326      C1327   1.428       .  A
C1327      C1328   1.409       .  A
C1327      C1330   1.451       .  S
C1328      C1331   1.450       .  S
C1329      N1336   1.156       .  T
C1330      N1335   1.158       .  T
C1331      N1333   1.157       .  T
C1332      N1334   1.157       .  T
C1337      C1338   1.429       .  A
C1337      C1342   1.403       .  A
C1338      C1339   1.408   1_565  A
C1338      C1343   1.452       .  S
C1339      C1340   1.399   1_556  A
C1339      C1346   1.452   1_556  S
C1340      C1341   1.426       .  A
C1341      C1342   1.409   1_544  A
C1341      C1344   1.452       .  S
C1342      C1345   1.451       .  S
C1343      N1350   1.158       .  T
C1344      N1349   1.157       .  T
C1345      N1347   1.157       .  T
C1346      N1348   1.157       .  T
C1351      C1352   1.421       .  A
C1351      C1356   1.416   1_554  A
C1352      C1353   1.410   1_554  A
C1352      C1357   1.455       .  S
C1353      C1354   1.416       .  A
C1353      C1360   1.453       .  S
C1354      C1355   1.420       .  A
C1355      C1356   1.426       .  A
C1355      C1358   1.449       .  S
C1356      C1359   1.447   1_556  S
C1357      N1364   1.158       .  T
C1358      N1363   1.157       .  T
C1359      N1361   1.157       .  T
C1360      N1362   1.157       .  T
C1365      C1366   1.417       .  A
C1365      C1370   1.417       .  A
C1366      C1367   1.419       .  A
C1366      C1371   1.451       .  S
C1367      C1368   1.418       .  A
C1367      C1374   1.452       .  S
C1368      C1369   1.419       .  A
C1369      C1370   1.419       .  A
C1369      C1372   1.451       .  S
C1370      C1373   1.451       .  S
C1371      N1378   1.158       .  T
C1372      N1377   1.157       .  T
C1373      N1375   1.157       .  T
C1374      N1376   1.158       .  T
C1379      C1380   1.415       .  A
C1379      C1384   1.414       .  A
C1380      C1381   1.420       .  A
C1380      C1385   1.450       .  S
C1381      C1382   1.413       .  A
C1381      C1388   1.449       .  S
C1382      C1383   1.415       .  A
C1383      C1384   1.421       .  A
C1383      C1386   1.450       .  S
C1384      C1387   1.450       .  S
C1385      N1392   1.157       .  T
C1386      N1391   1.157       .  T
C1387      N1389   1.157       .  T
C1388      N1390   1.157       .  T
C1393      C1394   1.431       .  A
C1393      C1398   1.401       .  A
C1394      C1395   1.411       .  A
C1394      C1399   1.452       .  S
C1395      C1396   1.398       .  A
C1395      C1402   1.455       .  S
C1396      C1397   1.427       .  A
C1397      C1398   1.412       .  A
C1397      C1400   1.450       .  S
C1398      C1401   1.452       .  S
C1399      N1406   1.157       .  T
C1400      N1405   1.157       .  T
C1401      N1403   1.157       .  T
C1402      N1404   1.157   1_545  T
C1407      C1408   1.417       .  A
C1407      C1412   1.414       .  A
C1408      C1409   1.417       .  A
C1408      C1413   1.445       .  S
C1409      C1410   1.409       .  A
C1409      C1416   1.451       .  S
C1410      C1411   1.414       .  A
C1411      C1412   1.423       .  A
C1411      C1414   1.450       .  S
C1412      C1415   1.438       .  S
C1413      N1420   1.155       .  T
C1414      N1419   1.158       .  T
C1415      N1417   1.154       .  T
C1416      N1418   1.157       .  T
C1421      C1422   1.427       .  A
C1421      C1426   1.417   1_554  A
C1422      C1423   1.398   1_554  A
C1422      C1427   1.457       .  S
C1423      C1424   1.412       .  A
C1423      C1430   1.456       .  S
C1424      C1425   1.427       .  A
C1425      C1426   1.436       .  A
C1425      C1428   1.447       .  S
C1426      C1429   1.447       .  S
C1427      N1434   1.158       .  T
C1428      N1433   1.157       .  T
C1429      N1431   1.157       .  T
C1430      N1432   1.158   1_556  T
C1435      C1436   1.431       .  A
C1435      C1440   1.411   1_554  A
C1436      C1437   1.404   1_554  A
C1436      C1441   1.457       .  S
C1437      C1438   1.404       .  A
C1437      C1444   1.457       .  S
C1438      C1439   1.419       .  A
C1439      C1440   1.419       .  A
C1439      C1442   1.442       .  S
C1440      C1443   1.450       .  S
C1441      N1448   1.158       .  T
C1442      N1447   1.154       .  T
C1443      N1445   1.157       .  T
C1444      N1446   1.157       .  T
C1449      C1450   1.412       .  A
C1449      C1454   1.416       .  A
C1450      C1451   1.411       .  A
C1450      C1455   1.451       .  S
C1451      C1452   1.413       .  A
C1451      C1458   1.451       .  S
C1452      C1453   1.411       .  A
C1453      C1454   1.415       .  A
C1453      C1456   1.451       .  S
C1454      C1457   1.450       .  S
C1455      N1462   1.157       .  T
C1456      N1461   1.157       .  T
C1457      N1459   1.157       .  T
C1458      N1460   1.157       .  T
C1463      C1464   1.418       .  A
C1463      C1468   1.417       .  A
C1464      C1465   1.419       .  A
C1464      C1469   1.451       .  S
C1465      C1466   1.416       .  A
C1465      C1472   1.451   1_455  S
C1466      C1467   1.417       .  A
C1467      C1468   1.415       .  A
C1467      C1470   1.452       .  S
C1468      C1471   1.452       .  S
C1469      N1476   1.158       .  T
C1470      N1475   1.157   1_455  T
C1471      N1473   1.158       .  T
C1472      N1474   1.157       .  T
C1477      C1478   1.410       .  A
C1477      C1482   1.415       .  A
C1478      C1479   1.419       .  A
C1478      C1483   1.448       .  S
C1479      C1480   1.416       .  A
C1479      C1486   1.449       .  S
C1480      C1481   1.412       .  A
C1481      C1482   1.410       .  A
C1481      C1484   1.452       .  S
C1482      C1485   1.450       .  S
C1483      N1490   1.157       .  T
C1484      N1489   1.157       .  T
C1485      N1487   1.156       .  T
C1486      N1488   1.157       .  T
C1491      C1492   1.419       .  A
C1491      C1496   1.404       .  A
C1492      C1493   1.403       .  A
C1492      C1497   1.455       .  S
C1493      C1494   1.406       .  A
C1493      C1500   1.454       .  S
C1494      C1495   1.421       .  A
C1495      C1496   1.411       .  A
C1495      C1498   1.449       .  S
C1496      C1499   1.449       .  S
C1497      N1504   1.158       .  T
C1498      N1503   1.156       .  T
C1499      N1501   1.157       .  T
C1500      N1502   1.157       .  T
C1505      C1506   1.420       .  A
C1505      C1510   1.405   1_556  A
C1506      C1507   1.422   1_565  A
C1506      C1511   1.447       .  S
C1507      C1508   1.411   1_546  A
C1507      C1514   1.450       .  S
C1508      C1509   1.421       .  A
C1509      C1510   1.417       .  A
C1509      C1512   1.442       .  S
C1510      C1513   1.452       .  S
C1511      N1518   1.156       .  T
C1512      N1517   1.154       .  T
C1513      N1515   1.157       .  T
C1514      N1516   1.157       .  T
C1519      C1520   1.410       .  A
C1519      C1524   1.417       .  A
C1520      C1521   1.414   1_556  A
C1520      C1525   1.450       .  S
C1521      C1522   1.414       .  A
C1521      C1528   1.451       .  S
C1522      C1523   1.406       .  A
C1523      C1524   1.410   1_554  A
C1523      C1526   1.451       .  S
C1524      C1527   1.452       .  S
C1525      N1532   1.157       .  T
C1526      N1531   1.157       .  T
C1527      N1529   1.157       .  T
C1528      N1530   1.157       .  T
C1533      C1534   1.415       .  A
C1533      C1538   1.404       .  A
C1534      C1535   1.417       .  A
C1534      C1539   1.449       .  S
C1535      C1536   1.410       .  A
C1535      C1542   1.448       .  S
C1536      C1537   1.425       .  A
C1537      C1538   1.405       .  A
C1537      C1540   1.452       .  S
C1538      C1541   1.455       .  S
C1539      N1546   1.157       .  T
C1540      N1545   1.156       .  T
C1541      N1543   1.157       .  T
C1542      N1544   1.157       .  T
C1547      C1548   1.403       .  A
C1547      C1552   1.410       .  A
C1548      C1549   1.409       .  A
C1548      C1553   1.451       .  S
C1549      C1550   1.425       .  A
C1549      C1556   1.452       .  S
C1550      C1551   1.420       .  A
C1551      C1552   1.410       .  A
C1551      C1554   1.451       .  S
C1552      C1555   1.454       .  S
C1553      N1560   1.157       .  T
C1554      N1559   1.158       .  T
C1555      N1557   1.157       .  T
C1556      N1558   1.157       .  T
C1561      C1562   1.404       .  A
C1561      C1566   1.411       .  A
C1562      C1563   1.413       .  A
C1562      C1567   1.452       .  S
C1563      C1564   1.427       .  A
C1563      C1570   1.451       .  S
C1564      C1565   1.422       .  A
C1565      C1566   1.418       .  A
C1565      C1568   1.450       .  S
C1566      C1569   1.450       .  S
C1567      N1574   1.157       .  T
C1568      N1573   1.158       .  T
C1569      N1571   1.157       .  T
C1570      N1572   1.157       .  T
C1575      C1576   1.409       .  A
C1575      C1580   1.410       .  A
C1576      C1577   1.405   1_655  A
C1576      C1581   1.452       .  S
C1577      C1578   1.416       .  A
C1577      C1584   1.453       .  S
C1578      C1579   1.411       .  A
C1579      C1580   1.412   1_455  A
C1579      C1582   1.450       .  S
C1580      C1583   1.448       .  S
C1581      N1588   1.157       .  T
C1582      N1587   1.157       .  T
C1583      N1585   1.157       .  T
C1584      N1586   1.157       .  T
C1589      C1590   1.415       .  A
C1589      C1594   1.412       .  A
C1590      C1591   1.412       .  A
C1590      C1595   1.451       .  S
C1591      C1592   1.409       .  A
C1591      C1598   1.451       .  S
C1592      C1593   1.412       .  A
C1593      C1594   1.412       .  A
C1593      C1596   1.451       .  S
C1594      C1597   1.450       .  S
C1595      N1602   1.157       .  T
C1596      N1601   1.157       .  T
C1597      N1599   1.157       .  T
C1598      N1600   1.157       .  T
C1603      C1604   1.422       .  A
C1603      C1608   1.423       .  A
C1604      C1605   1.427       .  A
C1604      C1609   1.448       .  S
C1605      C1606   1.415       .  A
C1605      C1612   1.448       .  S
C1606      C1607   1.411       .  A
C1607      C1608   1.403       .  A
C1607      C1610   1.456       .  S
C1608      C1611   1.456       .  S
C1609      N1616   1.157       .  T
C1610      N1615   1.157       .  T
C1611      N1613   1.158       .  T
C1612      N1614   1.157       .  T
