geometry optimzed in LAMMPS
_audit_creation_date              2020-12-01 
_audit_creation_method            'lammps2cif' 
_symmetry_space_group_name_H-M    'P1' 
_symmetry_Int_Tables_number       1 
_symmetry_cell_setting            triclinic 
loop_ 
_symmetry_equiv_pos_as_xyz 
  x,y,z 
_cell_length_a                    39.92431014 
_cell_length_b                    29.680389827961182 
_cell_length_c                    37.08731995469794 
_cell_angle_alpha                 89.85134259120115 
_cell_angle_beta                  96.79340025326009 
_cell_angle_gamma                 89.44029935727609 
loop_ 
_atom_site_label 
_atom_site_type_symbol 
_atom_site_fract_x 
_atom_site_fract_y 
_atom_site_fract_z 
_atom_site_charge 
N1          N  0.99869426  0.49947587  0.44608470    -0.36700
N2          N  0.49736847  0.42805938  0.00035618    -0.57200
N3          N  0.49863135  0.49705310  0.05532075    -0.36700
N4          N  0.99599316  0.56871070  0.00061016    -0.57200
C5          C  0.48892796  0.46409863  0.42439510     0.26900
C6          C  0.99515276  0.53714353  0.42521979     0.26900
C7          C  0.49622518  0.45955536  0.07570329     0.26900
C8          C  0.98936035  0.53257783  0.07489712     0.26900
C9          C  0.49884999  0.40224204  0.47055754     0.35500
C10         C  0.50540690  0.40116810  0.02973737     0.35500
C11         C  0.00424802  0.59535077  0.47335378     0.35500
C12         C  0.99782283  0.59438970  0.03086657     0.35500
C13         C  0.47904853  0.47976764  0.38938978    -0.22000
C14         C  0.98317156  0.52565304  0.38988039    -0.22000
C15         C  0.48546014  0.47138441  0.10862942    -0.22000
C16         C  0.98093281  0.51723623  0.10804376    -0.22000
C17         C  0.50717402  0.35828152  0.48103725    -0.23000
C18         C  0.51158955  0.35767783  0.01854905    -0.23000
C19         C  0.01075013  0.63857496  0.48621772    -0.23000
C20         C  0.00641771  0.63804909  0.02261042    -0.23000
C21         C  0.49168947  0.41772949  0.43416582    -0.18400
C22         C  0.00385038  0.58146647  0.43668995    -0.18400
C23         C  0.99183101  0.57880405  0.06574160    -0.18400
C24         C  0.50488733  0.41504922  0.06628397    -0.18400
H25         H  0.47048644  0.46010253  0.36560432     0.14500
H26         H  0.97795304  0.54802095  0.36675671     0.14500
H27         H  0.48142024  0.44931558  0.13095473     0.14500
H28         H  0.97322098  0.53711282  0.13011026     0.14500
H29         H  0.50983967  0.32969469  0.46350646     0.12800
H30         H  0.51793876  0.32845276  0.03559788     0.12800
H31         H  0.01747661  0.66753336  0.47090747     0.12800
H32         H  0.00963683  0.66637213  0.04097729     0.12800
H33         H  0.01115177  0.49770022  0.47226381     0.26100
H34         H  0.51014146  0.49869892  0.03174796     0.26100
O35         O  0.03657773  0.17553317  0.29729202    -0.85400
O36         O  0.46807939  0.16656823  0.27588492    -0.82500
C37         C  0.43872625  0.18086891  0.26501317     0.98000
O38         O  0.43412538  0.21691987  0.24708112    -0.82500
O39         O  0.46215091  0.29169298  0.28527705    -0.85100
C40         C  0.48551315  0.31712693  0.29920816     1.02600
O41         O  0.00998786  0.32285617  0.28151149    -0.77900
O42         O  0.03342297  0.24462238  0.31806427    -0.78100
C43         C  0.03427463  0.20229782  0.32323973     1.02500
O44         O  0.04849188  0.18097786  0.22302742    -0.85400
O45         O  0.48029659  0.17063238  0.20276664    -0.82500
C46         C  0.47098271  0.19892866  0.17821260     0.98100
O47         O  0.46585481  0.24000572  0.18511866    -0.82500
O48         O  0.48796428  0.31872133  0.21606581    -0.85100
C49         C  0.01550393  0.31693727  0.20212872     1.02500
O50         O  0.04083323  0.29662287  0.21914959    -0.77900
O51         O  0.07416816  0.22757196  0.26165567    -0.78100
C52         C  0.07559022  0.19652536  0.23894335     1.02500
Cr53       Cr  0.50797543  0.17809745  0.24981491     1.93700
Cr54       Cr  0.46493701  0.26534633  0.23487785     1.93200
Cr55       Cr  0.03765552  0.27094157  0.26889752     1.39100
O56         O  0.50330769  0.23748612  0.25072292    -1.23200
N57         N  0.20194373  0.00641018  0.25232184    -0.36700
N58         N  0.24824028  0.93152748  0.25639298    -0.57200
N59         N  0.30159828  0.99674604  0.25871117    -0.36700
N60         N  0.25578073  0.07174585  0.25792267    -0.57200
C61         C  0.18261257  0.97284080  0.26304775     0.26900
C62         C  0.18575194  0.04553339  0.25746292     0.26900
C63         C  0.31817794  0.95723494  0.26553017     0.26900
C64         C  0.32250867  0.02975531  0.27228838     0.26900
C65         C  0.21900827  0.90934233  0.24896666     0.35500
C66         C  0.27250698  0.90479197  0.24550267     0.35500
C67         C  0.22988455  0.09922167  0.24523394     0.35500
C68         C  0.28451783  0.09442243  0.25500161     0.35500
C69         C  0.15415156  0.99099756  0.27582544    -0.22000
C70         C  0.15600947  0.03696648  0.27202931    -0.22000
C71         C  0.34973995  0.96486451  0.28421510    -0.22000
C72         C  0.35235512  0.01070908  0.28884887    -0.22000
C73         C  0.22461966  0.86770065  0.23388949    -0.23000
C74         C  0.25873177  0.86502890  0.23121332    -0.23000
C75         C  0.24214892  0.14015202  0.23470506    -0.23000
C76         C  0.27689755  0.13716536  0.24106403    -0.23000
C77         C  0.18779115  0.92651719  0.25681391    -0.18400
C78         C  0.19556243  0.08813918  0.24566685    -0.18400
C79         C  0.31720003  0.07635793  0.26530764    -0.18400
C80         C  0.30695762  0.91539476  0.25106965    -0.18400
H81         H  0.13347861  0.97289573  0.28535855     0.14500
H82         H  0.13723980  0.06128604  0.27844824     0.14500
H83         H  0.36916137  0.94003492  0.29263357     0.14500
H84         H  0.37433918  0.02819462  0.30146925     0.14500
H85         H  0.20606863  0.84237151  0.22530189     0.12800
H86         H  0.27185068  0.83690097  0.22052523     0.12800
H87         H  0.22764039  0.16917982  0.22394004     0.12800
H88         H  0.29445867  0.16322123  0.23574927     0.12800
H89         H  0.22216330  0.00295572  0.23719090     0.26100
H90         H  0.27978031  0.00093097  0.24058759     0.26100
O91         O  0.98877582  0.81679537  0.19872469    -0.85400
O92         O  0.44631540  0.82981135  0.25433705    -0.82500
C93         C  0.42277159  0.80804887  0.23817974     0.98000
O94         O  0.42849903  0.76926294  0.22787370    -0.82500
O95         O  0.46298024  0.69753651  0.21014630    -0.85100
C96         C  0.48905975  0.68046362  0.19910242     1.02600
O97         O  0.01724681  0.68433671  0.21806889    -0.77900
O98         O  0.03437522  0.77128045  0.19698473    -0.78100
C99         C  0.01135109  0.79873605  0.18171264     1.02500
O100        O  0.04168519  0.83786018  0.24607104    -0.85400
O101        O  0.50112980  0.81756895  0.30288186    -0.82500
C102        C  0.48045210  0.79583012  0.31985856     0.98100
O103        O  0.46040522  0.76529993  0.30493174    -0.82500
O104        O  0.48647047  0.68194313  0.28605649    -0.85100
C105        C  0.01445690  0.68352908  0.30549419     1.02500
O106        O  0.03893172  0.70408532  0.29414840    -0.77900
O107        O  0.06612203  0.78161672  0.27400133    -0.78100
C108        C  0.06795397  0.82041679  0.26149478     1.02500
Cr109      Cr  0.49477231  0.82047868  0.25071448     1.93700
Cr110      Cr  0.46201130  0.73046765  0.25721138     1.93200
Cr111      Cr  0.03668706  0.73669614  0.24585747     1.39100
O112        O  0.49784196  0.76183535  0.25117291    -1.23200
N113        N  0.49144971  0.00086032  0.44206689    -0.36700
N114        N  0.49745746  0.93277537  0.99889769    -0.57200
N115        N  0.49391191  0.00227141  0.05273536    -0.36700
N116        N  0.49265649  0.07056668  0.99672982    -0.57200
C117        C  0.49466788  0.96328577  0.42225619     0.28900
C118        C  0.49994176  0.03641437  0.42220339     0.26900
C119        C  0.50457078  0.96727136  0.07480973     0.26900
C120        C  0.49515557  0.03991434  0.07319236     0.26900
C121        C  0.48928926  0.90576351  0.47016070     0.35500
C122        C  0.49771042  0.90631925  0.02850139     0.35500
C123        C  0.49187116  0.09705019  0.46702052     0.35500
C124        C  0.48461144  0.09725882  0.02385367     0.35500
C125        C  0.50400834  0.97498867  0.38869060    -0.22000
C126        C  0.50762987  0.02113251  0.38875335    -0.22000
C127        C  0.51235267  0.98294355  0.10998656    -0.22000
C128        C  0.50619274  0.02877469  0.10900446    -0.22000
C129        C  0.48476641  0.86191668  0.48149858    -0.23000
C130        C  0.49083805  0.86205670  0.01839659    -0.23000
C131        C  0.48416130  0.14110348  0.47555454    -0.23000
C132        C  0.47879435  0.14103621  0.01134770    -0.23000
C133        C  0.48917487  0.91880108  0.43372877    -0.18400
C134        C  0.49932220  0.08236833  0.43267478    -0.18400
C135        C  0.48555438  0.08375001  0.06045230    -0.18400
C136        C  0.50444676  0.92126710  0.06458806    -0.18400
H137        H  0.50828335  0.95256021  0.36668641     0.14500
H138        H  0.51469876  0.04114063  0.36646943     0.14500
H139        H  0.52086010  0.96330348  0.13401724     0.14500
H140        H  0.50949837  0.05132631  0.13201390     0.14500
H141        H  0.47868425  0.83248333  0.46492675     0.12800
H142        H  0.49002633  0.83268092  0.03556111     0.12800
H143        H  0.48236072  0.17033046  0.45794392     0.12800
H144        H  0.47247208  0.17027918  0.02664515     0.12800
H145        H  0.48102216  0.00201734  0.46629898     0.26100
H146        H  0.48235195  0.00022593  0.02632357     0.26100
C147        C  0.47889898  0.86340061  0.10014492    -0.26400
C148        C  0.00801440  0.88599354  0.09309125    -0.14500
C149        C  0.03982146  0.87171921  0.11012196     0.36200
C150        C  0.04150610  0.83714508  0.13637419    -0.25800
C151        C  0.01195754  0.81657927  0.14497877    -0.15100
C152        C  0.48076634  0.82796965  0.12498070     0.37300
N153        N  0.45055111  0.80534734  0.13178388    -0.89300
H154        H  0.45458755  0.87320570  0.08597960     0.18400
H155        H  0.06542080  0.82880082  0.15202932     0.18400
N156        N  0.06991930  0.89356414  0.10172748    -0.88400
H157        H  0.43967796  0.79138617  0.10732891     0.35700
H158        H  0.43368972  0.82930246  0.14000967     0.40800
H159        H  0.07251763  0.88679406  0.07450054     0.40500
H160        H  0.09111700  0.87964503  0.11711480     0.35300
C161        C  0.45428473  0.87524079  0.38675610    -0.26400
C162        C  0.48574337  0.88245494  0.40668856    -0.14500
C163        C  0.51268013  0.85243045  0.40361316     0.36200
C164        C  0.50838939  0.81716664  0.37874708    -0.25800
C165        C  0.47787282  0.81250401  0.35618322    -0.15100
C166        C  0.45021194  0.84048569  0.36127481     0.37300
N167        N  0.41895889  0.83624608  0.33833502    -0.89300
H168        H  0.43323261  0.89752957  0.39016892     0.18400
H169        H  0.53001292  0.79640608  0.37426820     0.18400
N170        N  0.04463454  0.85874138  0.42488321    -0.88400
H171        H  0.41390224  0.86663628  0.32434981     0.35700
H172        H  0.39989426  0.83124235  0.35495374     0.40800
H173        H  0.06287843  0.86275762  0.40714215     0.40500
H174        H  0.05053856  0.82941292  0.44011008     0.35300
C175        C  0.15579770  0.86864637  0.28734024    -0.26400
C176        C  0.15869507  0.89587163  0.25684721    -0.14500
C177        C  0.13247347  0.89660599  0.22787115     0.36200
C178        C  0.10366482  0.87118575  0.23023533    -0.25800
C179        C  0.10017260  0.84448653  0.26093801    -0.15100
C180        C  0.12675923  0.84300316  0.28971681     0.37300
N181        N  0.12430593  0.81771878  0.32221184    -0.89300
H182        H  0.17575676  0.86846655  0.30984808     0.18400
H183        H  0.08363747  0.87262387  0.20781968     0.18400
N184        N  0.13444437  0.92300323  0.19577723    -0.88400
H185        H  0.12167065  0.78372983  0.31546231     0.35700
H186        H  0.10271319  0.82856975  0.33333406     0.40800
H187        H  0.15616760  0.91334950  0.18453278     0.40500
H188        H  0.13645616  0.95701629  0.20296362     0.35300
C189        C  0.33713771  0.84138865  0.26065745    -0.26400
C190        C  0.33275329  0.88254224  0.24193038    -0.14500
C191        C  0.35539937  0.89469416  0.21723777     0.36200
C192        C  0.38350690  0.86740147  0.21375447    -0.25800
C193        C  0.38898448  0.82779609  0.23411333    -0.15100
C194        C  0.36516207  0.81376155  0.25676890     0.37300
N195        N  0.37052428  0.77298661  0.27749624    -0.89300
H196        H  0.31986863  0.83195981  0.27976669     0.18400
H197        H  0.40206714  0.87838907  0.19658968     0.18400
N198        N  0.35062191  0.93583548  0.19690132    -0.88400
H199        H  0.34987393  0.75219091  0.27048626     0.35700
H200        H  0.37096628  0.78098580  0.30502591     0.40800
H201        H  0.37192989  0.95580656  0.20346778     0.40500
H202        H  0.34912642  0.92793682  0.16933684     0.35300
C203        C  0.44361348  0.15195104  0.12918598    -0.26400
C204        C  0.46941543  0.18196556  0.14119528    -0.14500
C205        C  0.99937979  0.18216574  0.12459845     0.36200
C206        C  0.00394380  0.15024645  0.09781344    -0.25800
C207        C  0.47896726  0.11854538  0.08731022    -0.15100
C208        C  0.44801537  0.12029389  0.10201882     0.37300
N209        N  0.42156657  0.08943667  0.08979281    -0.89300
H210        H  0.42109635  0.15106331  0.14287769     0.18400
H211        H  0.02744784  0.14897514  0.08590178     0.18400
N212        N  0.02619312  0.21221099  0.13739394    -0.88400
H213        H  0.40024368  0.09583016  0.10284306     0.35700
H214        H  0.42995675  0.05693336  0.09759146     0.40800
H215        H  0.01755640  0.24505781  0.13125806     0.40500
H216        H  0.04705210  0.20698472  0.12334977     0.35300
C217        C  0.49396121  0.17786590  0.36337256    -0.26400
C218        C  0.02791436  0.18172515  0.35764843    -0.14500
C219        C  0.05243871  0.15389973  0.37728160     0.36200
C220        C  0.04241881  0.12289385  0.40252854    -0.25800
C221        C  0.00820258  0.11727276  0.40671472    -0.15100
C222        C  0.48360022  0.14513342  0.38678817     0.37300
N223        N  0.44799718  0.13980156  0.38817372    -0.89300
H224        H  0.47488922  0.19776946  0.34702453     0.18400
H225        H  0.06116677  0.10158386  0.41794343     0.18400
N226        N  0.08719326  0.15648211  0.37083742    -0.88400
H227        H  0.43887353  0.16929904  0.39907887     0.35700
H228        H  0.44293079  0.11332844  0.40520046     0.40800
H229        H  0.08893046  0.14535635  0.34438133     0.40500
H230        H  0.10206498  0.13435190  0.38806083     0.35300
C231        C  0.37227351  0.09279663  0.24315070    -0.26400
C232        C  0.34775688  0.10516342  0.26558789    -0.14500
C233        C  0.35393871  0.14205424  0.28924925     0.36200
C234        C  0.38438442  0.16589807  0.28999680    -0.25800
C235        C  0.40915086  0.15247133  0.26822911    -0.15100
C236        C  0.40296984  0.11565015  0.24451312     0.37300
N237        N  0.42739763  0.10278341  0.22078480    -0.89300
H238        H  0.36751519  0.06464232  0.22475564     0.18400
H239        H  0.38865933  0.19496890  0.30749487     0.18400
N240        N  0.32956430  0.15504108  0.31272704    -0.88400
H241        H  0.41847830  0.07614410  0.20401298     0.35700
H242        H  0.44879249  0.09065397  0.23698377     0.40800
H243        H  0.34118042  0.15343551  0.33948565     0.40500
H244        H  0.32260400  0.18858086  0.30695411     0.35300
C245        C  0.16710177  0.15906269  0.26017539    -0.26400
C246        C  0.16841453  0.12246319  0.23679643    -0.14500
C247        C  0.14068587  0.11456424  0.20995133     0.36200
C248        C  0.11129723  0.14099573  0.20950051    -0.25800
C249        C  0.10893896  0.17544019  0.23497137    -0.15100
C250        C  0.13791787  0.18565610  0.25950268     0.37300
N251        N  0.13745735  0.22137796  0.28537105    -0.89300
H252        H  0.18808670  0.16523577  0.28085497     0.18400
H253        H  0.08972968  0.13325609  0.18999937     0.18400
N254        N  0.14112191  0.07928656  0.18349903    -0.88400
H255        H  0.15683981  0.24358245  0.28152082     0.35700
H256        H  0.14245110  0.20749306  0.31148076     0.40800
H257        H  0.16474668  0.06357222  0.18483856     0.40500
H258        H  0.12381535  0.05490838  0.18938034     0.35300
C259        C  0.04026561  0.38509100  0.12161990    -0.26400
C260        C  0.01075798  0.38181017  0.09690810    -0.14500
C261        C  0.48441386  0.35426201  0.10579594     0.36200
C262        C  0.48735808  0.33257868  0.13982160    -0.25800
C263        C  0.01619781  0.33729957  0.16535311    -0.15100
C264        C  0.04341963  0.36277053  0.15562079     0.37300
N265        N  0.07306810  0.36855936  0.18109354    -0.89300
H266        H  0.06021653  0.40703752  0.11502546     0.18400
H267        H  0.46642918  0.31280030  0.14683969     0.18400
N268        N  0.45414282  0.35006472  0.08090740    -0.88400
H269        H  0.08988040  0.39030570  0.17049275     0.35700
H270        H  0.08534795  0.33726833  0.18437322     0.40800
H271        H  0.44222303  0.38160077  0.07863398     0.40500
H272        H  0.43732025  0.32805423  0.09131148     0.35300
C273        C  0.45731452  0.34486504  0.35308134    -0.26400
C274        C  0.48662650  0.33851569  0.33599455    -0.14500
C275        C  0.51786604  0.35293328  0.35460429     0.36200
C276        C  0.01880350  0.37585248  0.38768635    -0.25800
C277        C  0.48942712  0.38457200  0.40360453    -0.15100
C278        C  0.45830741  0.36783930  0.38656141     0.37300
N279        N  0.42727323  0.37425472  0.40202914    -0.89300
H280        H  0.43333600  0.33310403  0.33992118     0.18400
H281        H  0.04270740  0.38841421  0.40048752     0.18400
N282        N  0.04905611  0.34445900  0.34012031    -0.88400
H283        H  0.41177627  0.39546614  0.38458505     0.35700
H284        H  0.43121322  0.39038962  0.42711759     0.40800
H285        H  0.06477126  0.32564148  0.35919171     0.40500
H286        H  0.06061274  0.37539688  0.33658984     0.35300
C287        C  0.46115966  0.62968365  0.10492768    -0.26400
C288        C  0.49186815  0.61134263  0.09640196    -0.14500
C289        C  0.02123275  0.61690741  0.12113422     0.36200
C290        C  0.01900507  0.63885623  0.15405477    -0.25800
C291        C  0.48826503  0.65627330  0.16355998    -0.15100
C292        C  0.45908431  0.65275041  0.13797035     0.37300
N293        N  0.42750008  0.67200742  0.14551127    -0.89300
H294        H  0.43857320  0.62482580  0.08613967     0.18400
H295        H  0.04202086  0.64206601  0.17247258     0.18400
N296        N  0.05374667  0.60001523  0.11416190    -0.88400
H297        H  0.40846325  0.66494001  0.12451402     0.35700
H298        H  0.43014719  0.70704482  0.14574255     0.40800
H299        H  0.05316860  0.58604419  0.08829426     0.40500
H300        H  0.06072797  0.57423499  0.13286035     0.35300
C301        C  0.03901143  0.61014315  0.38980760    -0.26400
C302        C  0.00985739  0.61465740  0.40763051    -0.14500
C303        C  0.48428055  0.64499459  0.39352150     0.36200
C304        C  0.48778679  0.66877922  0.36135165    -0.25800
C305        C  0.01606333  0.66262826  0.34232493    -0.15100
C306        C  0.04246803  0.63400957  0.35736213     0.37300
N307        N  0.07148284  0.62689073  0.33852879    -0.89300
H308        H  0.05841644  0.58623439  0.40039391     0.18400
H309        H  0.46750138  0.69105968  0.35017307     0.18400
N310        N  0.45414322  0.64995051  0.41095266    -0.88400
H311        H  0.08794433  0.60342150  0.35247080     0.35700
H312        H  0.08450946  0.65729002  0.33888702     0.40800
H313        H  0.44151487  0.61917536  0.40887652     0.40500
H314        H  0.43782738  0.67375331  0.39726434     0.35300
N315        N  0.99869430  0.49947592  0.94608480    -0.36700
N316        N  0.49736848  0.42805937  0.50035619    -0.57200
N317        N  0.49863135  0.49705305  0.55532085    -0.36700
N318        N  0.99599313  0.56871061  0.50061011    -0.57200
C319        C  0.48892791  0.46409866  0.92439513     0.26900
C320        C  0.99515273  0.53714360  0.92521984     0.26900
C321        C  0.49622522  0.45955534  0.57570330     0.26900
C322        C  0.98936037  0.53257778  0.57489712     0.26900
C323        C  0.49884999  0.40224205  0.97055753     0.35500
C324        C  0.50540692  0.40116808  0.52973738     0.35500
C325        C  0.00424801  0.59535087  0.97335382     0.35500
C326        C  0.99782279  0.59438964  0.53086652     0.35500
C327        C  0.47904838  0.47976770  0.88938984    -0.22000
C328        C  0.98317153  0.52565311  0.88988043    -0.22000
C329        C  0.48546018  0.47138438  0.60862944    -0.22000
C330        C  0.98093287  0.51723620  0.60804378    -0.22000
C331        C  0.50717403  0.35828152  0.98103724    -0.23000
C332        C  0.51158957  0.35767782  0.51854906    -0.23000
C333        C  0.01075013  0.63857505  0.98621777    -0.23000
C334        C  0.00641768  0.63804901  0.52261036    -0.23000
C335        C  0.49168945  0.41772951  0.93416582    -0.18400
C336        C  0.00385032  0.58146657  0.93668998    -0.18400
C337        C  0.99183101  0.57880400  0.56574155    -0.18400
C338        C  0.50488734  0.41504919  0.56628397    -0.18400
H339        H  0.47048623  0.46010260  0.86560439     0.14500
H340        H  0.97795298  0.54802103  0.86675677     0.14500
H341        H  0.48142029  0.44931556  0.63095475     0.14500
H342        H  0.97322105  0.53711280  0.63011029     0.14500
H343        H  0.50983970  0.32969470  0.96350645     0.12800
H344        H  0.51793878  0.32845274  0.53559788     0.12800
H345        H  0.01747659  0.66753346  0.97090751     0.12800
H346        H  0.00963680  0.66637206  0.54097723     0.12800
H347        H  0.01115159  0.49770031  0.97226341     0.26100
H348        H  0.51014174  0.49869892  0.53174745     0.26100
O349        O  0.03657781  0.17553330  0.79729206    -0.85400
O350        O  0.46807944  0.16656821  0.77588490    -0.82500
C351        C  0.43872630  0.18086890  0.76501318     0.98000
O352        O  0.43412541  0.21691987  0.74708113    -0.82500
O353        O  0.46215086  0.29169298  0.78527702    -0.85100
C354        C  0.48551309  0.31712695  0.79920814     1.02600
O355        O  0.00998777  0.32285622  0.78151145    -0.77900
O356        O  0.03342294  0.24462248  0.81806431    -0.78100
C357        C  0.03427464  0.20229792  0.82323977     1.02500
O358        O  0.04849196  0.18097806  0.72302743    -0.85400
O359        O  0.48029669  0.17063239  0.70276664    -0.82500
C360        C  0.47098274  0.19892865  0.67821260     0.98100
O361        O  0.46585481  0.24000570  0.68511866    -0.82500
O362        O  0.48796424  0.31872135  0.71606578    -0.85100
C363        C  0.01550389  0.31693727  0.70212870     1.02500
O364        O  0.04083319  0.29662295  0.71914962    -0.77900
O365        O  0.07416820  0.22757215  0.76165572    -0.78100
C366        C  0.07559029  0.19652563  0.73894334     1.02500
Cr367      Cr  0.50797551  0.17809752  0.74981491     1.93700
Cr368      Cr  0.46493700  0.26534634  0.73487784     1.93200
Cr369      Cr  0.03765550  0.27094167  0.76889754     1.39100
O370        O  0.50330771  0.23748619  0.75072292    -1.23200
N371        N  0.20194378  0.00641029  0.75232197    -0.36700
N372        N  0.24824028  0.93152752  0.75639295    -0.57200
N373        N  0.30159829  0.99674606  0.75871114    -0.36700
N374        N  0.25578074  0.07174596  0.75792288    -0.57200
C375        C  0.18261253  0.97284088  0.76304774     0.26900
C376        C  0.18575192  0.04553349  0.75746303     0.26900
C377        C  0.31817796  0.95723496  0.76553002     0.26900
C378        C  0.32250869  0.02975531  0.77228836     0.26900
C379        C  0.21900825  0.90934242  0.74896659     0.35500
C380        C  0.27250696  0.90479199  0.74550261     0.35500
C381        C  0.22988457  0.09922180  0.74523415     0.35500
C382        C  0.28451785  0.09442250  0.75500178     0.35500
C383        C  0.15415143  0.99099761  0.77582528    -0.22000
C384        C  0.15600936  0.03696655  0.77202924    -0.22000
C385        C  0.34974000  0.96486449  0.78421489    -0.22000
C386        C  0.35235517  0.01070905  0.78884876    -0.22000
C387        C  0.22461961  0.86770076  0.73388937    -0.23000
C388        C  0.25873172  0.86502897  0.73121322    -0.23000
C389        C  0.24214895  0.14015214  0.73470527    -0.23000
C390        C  0.27689758  0.13716544  0.74106422    -0.23000
C391        C  0.18779113  0.92651727  0.75681385    -0.18400
C392        C  0.19556242  0.08813930  0.74566697    -0.18400
C393        C  0.31720005  0.07635796  0.76530772    -0.18400
C394        C  0.30695760  0.91539478  0.75106952    -0.18400
H395        H  0.13347841  0.97289576  0.78535822     0.14500
H396        H  0.13723965  0.06128608  0.77844807     0.14500
H397        H  0.36916143  0.94003487  0.79263327     0.14500
H398        H  0.37433925  0.02819458  0.80146912     0.14500
H399        H  0.20606855  0.84237168  0.72530172     0.12800
H400        H  0.27185062  0.83690106  0.72052509     0.12800
H401        H  0.22764044  0.16917994  0.72394022     0.12800
H402        H  0.29445871  0.16322128  0.73574941     0.12800
H403        H  0.22216318  0.00295591  0.73719130     0.26100
H404        H  0.27978024  0.00093106  0.74058760     0.26100
O405        O  0.98877590  0.81679538  0.69872467    -0.85400
O406        O  0.44631541  0.82981137  0.75433698    -0.82500
C407        C  0.42277159  0.80804887  0.73817968     0.98000
O408        O  0.42849904  0.76926294  0.72787366    -0.82500
O409        O  0.46298022  0.69753649  0.71014628    -0.85100
C410        C  0.48905972  0.68046359  0.69910239     1.02600
O411        O  0.01724682  0.68433669  0.71806888    -0.77900
O412        O  0.03437528  0.77128042  0.69698473    -0.78100
C413        C  0.01135117  0.79873603  0.68171263     1.02500
O414        O  0.04168524  0.83786017  0.74607108    -0.85400
O415        O  0.50112981  0.81756898  0.80288179    -0.82500
C416        C  0.48045209  0.79583018  0.81985850     0.98100
O417        O  0.46040521  0.76529999  0.80493170    -0.82500
O418        O  0.48647044  0.68194315  0.78605653    -0.85100
C419        C  0.01445688  0.68352908  0.80549417     1.02500
O420        O  0.03893171  0.70408532  0.79414841    -0.77900
O421        O  0.06612208  0.78161668  0.77400133    -0.78100
C422        C  0.06795402  0.82041675  0.76149478     1.02500
Cr423      Cr  0.49477233  0.82047866  0.75071443     1.93700
Cr424      Cr  0.46201129  0.73046766  0.75721136     1.93200
Cr425      Cr  0.03668708  0.73669612  0.74585747     1.39100
O426        O  0.49784196  0.76183533  0.75117290    -1.23200
N427        N  0.49144975  0.00086033  0.94206689    -0.36700
N428        N  0.49745746  0.93277537  0.49889771    -0.57200
N429        N  0.49391195  0.00227141  0.55273536    -0.36700
N430        N  0.49265645  0.07056665  0.49672979    -0.57200
C431        C  0.49466793  0.96328579  0.92225619     0.28900
C432        C  0.49994176  0.03641440  0.92220340     0.26900
C433        C  0.50457082  0.96727137  0.57480974     0.26900
C434        C  0.49515559  0.03991434  0.57319234     0.26900
C435        C  0.48928931  0.90576351  0.97016068     0.35500
C436        C  0.49771046  0.90631925  0.52850141     0.35500
C437        C  0.49187113  0.09705021  0.96702053     0.35500
C438        C  0.48461144  0.09725882  0.52385365     0.35500
C439        C  0.50400837  0.97498872  0.88869060    -0.22000
C440        C  0.50762987  0.02113256  0.88875336    -0.22000
C441        C  0.51235270  0.98294357  0.60998657    -0.22000
C442        C  0.50619276  0.02877471  0.60900445    -0.22000
C443        C  0.48476645  0.86191668  0.98149854    -0.23000
C444        C  0.49083808  0.86205671  0.51839662    -0.23000
C445        C  0.48416118  0.14110347  0.97555453    -0.23000
C446        C  0.47879444  0.14103622  0.51134769    -0.23000
C447        C  0.48917493  0.91880109  0.93372875    -0.18400
C448        C  0.49932215  0.08236835  0.93267479    -0.18400
C449        C  0.48555439  0.08375001  0.56045227    -0.18400
C450        C  0.50444680  0.92126710  0.56458808    -0.18400
H451        H  0.50828338  0.95256028  0.86668639     0.14500
H452        H  0.51469874  0.04114068  0.86646943     0.14500
H453        H  0.52086012  0.96330352  0.63401726     0.14500
H454        H  0.50949838  0.05132634  0.63201388     0.14500
H455        H  0.47868431  0.83248332  0.96492671     0.12800
H456        H  0.49002639  0.83268092  0.53556115     0.12800
H457        H  0.48236051  0.17033042  0.95794388     0.12800
H458        H  0.47247225  0.17027922  0.52664515     0.12800
H459        H  0.48102217  0.00201734  0.96629908     0.26100
H460        H  0.48235200  0.00022592  0.52632361     0.26100
C461        C  0.47889902  0.86340055  0.60014490    -0.26400
C462        C  0.00801445  0.88599354  0.59309125    -0.14500
C463        C  0.03982151  0.87171929  0.61012201     0.36200
C464        C  0.04150618  0.83714514  0.63637422    -0.25800
C465        C  0.01195763  0.81657925  0.64497877    -0.15100
C466        C  0.48076639  0.82796956  0.62498064     0.37300
N467        N  0.45055117  0.80534718  0.63178377    -0.89300
H468        H  0.45458761  0.87320563  0.58597956     0.18400
H469        H  0.06542088  0.82880090  0.65202937     0.18400
N470        N  0.06991933  0.89356433  0.60172760    -0.88400
H471        H  0.43967804  0.79138612  0.60732884     0.35700
H472        H  0.43368972  0.82930237  0.64000962     0.40800
H473        H  0.07251771  0.88679429  0.57450066     0.40500
H474        H  0.09111704  0.87964526  0.61711494     0.35300
C475        C  0.45428476  0.87524085  0.88675607    -0.26400
C476        C  0.48574341  0.88245498  0.90668852    -0.14500
C477        C  0.51268017  0.85243050  0.90361308     0.36200
C478        C  0.50838941  0.81716670  0.87874699    -0.25800
C479        C  0.47787282  0.81250409  0.85618316    -0.15100
C480        C  0.45021196  0.84048577  0.86127477     0.37300
N481        N  0.41895889  0.83624619  0.83833497    -0.89300
H482        H  0.43323264  0.89752963  0.89016893     0.18400
H483        H  0.53001294  0.79640616  0.87426809     0.18400
N484        N  0.04463449  0.85874127  0.92488326    -0.88400
H485        H  0.41390227  0.86663625  0.82434985     0.35700
H486        H  0.39989428  0.83124243  0.85495372     0.40800
H487        H  0.06287843  0.86275749  0.90714220     0.40500
H488        H  0.05053846  0.82941286  0.94011011     0.35300
C489        C  0.15579774  0.86864639  0.78734017    -0.26400
C490        C  0.15869509  0.89587166  0.75684714    -0.14500
C491        C  0.13247352  0.89660590  0.72787105     0.36200
C492        C  0.10366488  0.87118564  0.73023526    -0.25800
C493        C  0.10017267  0.84448646  0.76093796    -0.15100
C494        C  0.12675931  0.84300312  0.78971674     0.37300
N495        N  0.12430609  0.81771864  0.82221174    -0.89300
H496        H  0.17575680  0.86846662  0.80984802     0.18400
H497        H  0.08363754  0.87262371  0.70781960     0.18400
N498        N  0.13444449  0.92300297  0.69577706    -0.88400
H499        H  0.12167082  0.78373013  0.81546232     0.35700
H500        H  0.10271309  0.82856978  0.83333413     0.40800
H501        H  0.15616756  0.91334925  0.68453274     0.40500
H502        H  0.13645630  0.95701625  0.70296343     0.35300
C503        C  0.33713767  0.84138862  0.76065731    -0.26400
C504        C  0.33275326  0.88254222  0.74193023    -0.14500
C505        C  0.35539934  0.89469410  0.71723762     0.36200
C506        C  0.38350688  0.86740141  0.71375435    -0.25800
C507        C  0.38898447  0.82779607  0.73411326    -0.15100
C508        C  0.36516205  0.81376153  0.75676881     0.37300
N509        N  0.37052424  0.77298660  0.77749614    -0.89300
H510        H  0.31986858  0.83195979  0.77976655     0.18400
H511        H  0.40206712  0.87838898  0.69658955     0.18400
N512        N  0.35062190  0.93583540  0.69690114    -0.88400
H513        H  0.34987397  0.75219095  0.77048618     0.35700
H514        H  0.37096623  0.78098582  0.80502593     0.40800
H515        H  0.37192983  0.95580641  0.70346755     0.40500
H516        H  0.34912639  0.92793667  0.66933660     0.35300
C517        C  0.44361351  0.15195098  0.62918601    -0.26400
C518        C  0.46941544  0.18196552  0.64119528    -0.14500
C519        C  0.99937984  0.18216561  0.62459848     0.36200
C520        C  0.00394386  0.15024635  0.59781345    -0.25800
C521        C  0.47896726  0.11854537  0.58731019    -0.15100
C522        C  0.44801538  0.12029384  0.60201884     0.37300
N523        N  0.42156667  0.08943650  0.58979287    -0.89300
H524        H  0.42109639  0.15106321  0.64287774     0.18400
H525        H  0.02744790  0.14897504  0.58590181     0.18400
N526        N  0.02619318  0.21221083  0.63739399    -0.88400
H527        H  0.40024349  0.09583008  0.60284334     0.35700
H528        H  0.42995674  0.05693359  0.59759141     0.40800
H529        H  0.01755645  0.24505776  0.63125808     0.40500
H530        H  0.04705214  0.20698456  0.62334989     0.35300
C531        C  0.49396116  0.17786585  0.86337248    -0.26400
C532        C  0.02791435  0.18172522  0.85764846    -0.14500
C533        C  0.05243870  0.15389985  0.87728168     0.36200
C534        C  0.04241879  0.12289395  0.90252860    -0.25800
C535        C  0.00820255  0.11727278  0.90671473    -0.15100
C536        C  0.48360015  0.14513338  0.88678809     0.37300
N537        N  0.44799710  0.13980135  0.88817359    -0.89300
H538        H  0.47488917  0.19776937  0.84702441     0.18400
H539        H  0.06116676  0.10158401  0.91794353     0.18400
N540        N  0.08719325  0.15648229  0.87083754    -0.88400
H541        H  0.43887332  0.16929920  0.89907874     0.35700
H542        H  0.44293076  0.11332868  0.90520013     0.40800
H543        H  0.08893051  0.14535655  0.84438153     0.40500
H544        H  0.10206504  0.13435199  0.88806105     0.35300
C545        C  0.37227349  0.09279670  0.74315071    -0.26400
C546        C  0.34775690  0.10516343  0.76558797    -0.14500
C547        C  0.35393877  0.14205423  0.78924936     0.36200
C548        C  0.38438449  0.16589806  0.78999690    -0.25800
C549        C  0.40915090  0.15247135  0.76822914    -0.15100
C550        C  0.40296982  0.11565024  0.74451309     0.37300
N551        N  0.42739752  0.10278360  0.72078465    -0.89300
H552        H  0.36751513  0.06464244  0.72475562     0.18400
H553        H  0.38865942  0.19496886  0.80749499     0.18400
N554        N  0.32956437  0.15504105  0.81272717    -0.88400
H555        H  0.41847817  0.07614443  0.70401281     0.35700
H556        H  0.44879245  0.09065410  0.73698355     0.40800
H557        H  0.34118049  0.15343555  0.83948571     0.40500
H558        H  0.32260401  0.18858091  0.80695420     0.35300
C559        C  0.16710184  0.15906293  0.76017531    -0.26400
C560        C  0.16841452  0.12246330  0.73679646    -0.14500
C561        C  0.14068581  0.11456430  0.70995143     0.36200
C562        C  0.11129730  0.14099608  0.70950043    -0.25800
C563        C  0.10893905  0.17544056  0.73497128    -0.15100
C564        C  0.13791794  0.18565635  0.75950266     0.37300
N565        N  0.13745736  0.22137790  0.78537130    -0.89300
H566        H  0.18808678  0.16523598  0.78085489     0.18400
H567        H  0.08972973  0.13325648  0.68999929     0.18400
N568        N  0.14112156  0.07928618  0.68349947    -0.88400
H569        H  0.15683986  0.24358229  0.78152143     0.35700
H570        H  0.14245090  0.20749261  0.81148090     0.40800
H571        H  0.16474623  0.06357143  0.68483918     0.40500
H572        H  0.12381483  0.05490842  0.68938099     0.35300
C573        C  0.04026565  0.38509090  0.62161989    -0.26400
C574        C  0.01075802  0.38181011  0.59690808    -0.14500
C575        C  0.48441387  0.35426196  0.60579592     0.36200
C576        C  0.48735809  0.33257863  0.63982158    -0.25800
C577        C  0.01619780  0.33729952  0.66535309    -0.15100
C578        C  0.04341963  0.36277046  0.65562078     0.37300
N579        N  0.07306805  0.36855931  0.68109358    -0.89300
H580        H  0.06021659  0.40703739  0.61502547     0.18400
H581        H  0.46642919  0.31280023  0.64683965     0.18400
N582        N  0.45414283  0.35006460  0.58090741    -0.88400
H583        H  0.08988046  0.39030575  0.67049275     0.35700
H584        H  0.08534790  0.33726834  0.68437330     0.40800
H585        H  0.44222292  0.38160107  0.57863397     0.40500
H586        H  0.43732039  0.32805436  0.59131135     0.35300
C587        C  0.45731447  0.34486505  0.85308132    -0.26400
C588        C  0.48662645  0.33851569  0.83599453    -0.14500
C589        C  0.51786599  0.35293328  0.85460426     0.36200
C590        C  0.01880349  0.37585256  0.88768630    -0.25800
C591        C  0.48942709  0.38457203  0.90360451    -0.15100
C592        C  0.45830737  0.36783931  0.88656139     0.37300
N593        N  0.42727324  0.37425466  0.90202924    -0.89300
H594        H  0.43333594  0.33310404  0.83992117     0.18400
H595        H  0.04270739  0.38841432  0.90048743     0.18400
N596        N  0.04905605  0.34445922  0.84012017    -0.88400
H597        H  0.41177599  0.39546635  0.88458483     0.35700
H598        H  0.43121314  0.39038940  0.92711731     0.40800
H599        H  0.06477149  0.32564136  0.85919188     0.40500
H600        H  0.06061253  0.37539665  0.83658975     0.35300
C601        C  0.46115965  0.62968362  0.60492762    -0.26400
C602        C  0.49186814  0.61134260  0.59640192    -0.14500
C603        C  0.02123277  0.61690737  0.62113417     0.36200
C604        C  0.01900511  0.63885620  0.65405472    -0.25800
C605        C  0.48826501  0.65627328  0.66355994    -0.15100
C606        C  0.45908429  0.65275040  0.63797030     0.37300
N607        N  0.42750000  0.67200730  0.64551113    -0.89300
H608        H  0.43857320  0.62482577  0.58613959     0.18400
H609        H  0.04202089  0.64206597  0.67247254     0.18400
N610        N  0.05374670  0.60001518  0.61416186    -0.88400
H611        H  0.40846353  0.66494015  0.62451428     0.35700
H612        H  0.43014723  0.70704539  0.64574248     0.40800
H613        H  0.05316859  0.58604409  0.58829405     0.40500
H614        H  0.06072796  0.57423513  0.63286014     0.35300
C615        C  0.03901133  0.61014315  0.88980760    -0.26400
C616        C  0.00985732  0.61465748  0.90763053    -0.14500
C617        C  0.48428057  0.64499468  0.89352153     0.36200
C618        C  0.48778685  0.66877934  0.86135171    -0.25800
C619        C  0.01606329  0.66262830  0.84232492    -0.15100
C620        C  0.04246795  0.63400956  0.85736213     0.37300
N621        N  0.07148279  0.62689067  0.83852882    -0.89300
H622        H  0.05841631  0.58623435  0.90039391     0.18400
H623        H  0.46750149  0.69105988  0.85017314     0.18400
N624        N  0.45414322  0.64995077  0.91095264    -0.88400
H625        H  0.08794418  0.60342151  0.85247078     0.35700
H626        H  0.08450942  0.65728996  0.83888707     0.40800
H627        H  0.44151468  0.61917512  0.90887644     0.40500
H628        H  0.43782763  0.67375318  0.89726454     0.35300
N629        N  0.49869438  0.49947585  0.44608474    -0.36700
N630        N  0.99736846  0.42805942  0.00035620    -0.57200
N631        N  0.99863144  0.49705313  0.05532072    -0.36700
N632        N  0.49599319  0.56871067  0.00061017    -0.57200
C633        C  0.98892785  0.46409865  0.42439511     0.26900
C634        C  0.49515284  0.53714352  0.42521979     0.26900
C635        C  0.99622524  0.45955539  0.07570331     0.26900
C636        C  0.48936036  0.53257781  0.07489713     0.26900
C637        C  0.99884990  0.40224206  0.47055755     0.35500
C638        C  0.00540685  0.40116811  0.02973738     0.35500
C639        C  0.50424808  0.59535077  0.47335379     0.35500
C640        C  0.49782282  0.59438970  0.03086657     0.35500
C641        C  0.97904842  0.47976766  0.38938979    -0.22000
C642        C  0.48317165  0.52565302  0.38988039    -0.22000
C643        C  0.98546015  0.47138443  0.10862942    -0.22000
C644        C  0.48093286  0.51723623  0.10804379    -0.22000
C645        C  0.00717387  0.35828151  0.48103725    -0.23000
C646        C  0.01158938  0.35767780  0.01854904    -0.23000
C647        C  0.51075015  0.63857497  0.48621773    -0.23000
C648        C  0.50641762  0.63804911  0.02261039    -0.23000
C649        C  0.99168936  0.41772952  0.43416584    -0.18400
C650        C  0.50385042  0.58146647  0.43668996    -0.18400
C651        C  0.49183106  0.57880403  0.06574161    -0.18400
C652        C  0.00488735  0.41504924  0.06628399    -0.18400
H653        H  0.97048633  0.46010255  0.36560433     0.14500
H654        H  0.47795311  0.54802093  0.36675672     0.14500
H655        H  0.98142022  0.44931560  0.13095471     0.14500
H656        H  0.47322109  0.53711283  0.13011032     0.14500
H657        H  0.00983943  0.32969468  0.46350644     0.12800
H658        H  0.01793852  0.32845271  0.03559787     0.12800
H659        H  0.51747660  0.66753338  0.47090747     0.12800
H660        H  0.50963668  0.66637217  0.04097725     0.12800
H661        H  0.51115176  0.49770022  0.47226358     0.26100
H662        H  0.01014143  0.49869894  0.03174831     0.26100
O663        O  0.53657756  0.17553299  0.29729197    -0.85400
O664        O  0.96807947  0.16656818  0.27588492    -0.82500
C665        C  0.93872631  0.18086892  0.26501324     0.98000
O666        O  0.93412546  0.21691992  0.24708123    -0.82500
O667        O  0.96215094  0.29169302  0.28527709    -0.85100
C668        C  0.98551315  0.31712700  0.29920821     1.02600
O669        O  0.50998786  0.32285604  0.28151143    -0.77900
O670        O  0.53342288  0.24462224  0.31806418    -0.78100
C671        C  0.53427453  0.20229770  0.32323967     1.02500
O672        O  0.54849171  0.18097755  0.22302737    -0.85400
O673        O  0.98029679  0.17063243  0.20276671    -0.82500
C674        C  0.97098281  0.19892867  0.17821268     0.98100
O675        O  0.96585486  0.24000572  0.18511874    -0.82500
O676        O  0.98796429  0.31872140  0.21606584    -0.85100
C677        C  0.51550390  0.31693713  0.20212866     1.02500
O678        O  0.54083318  0.29662265  0.21914950    -0.77900
O679        O  0.57416801  0.22757162  0.26165563    -0.78100
C680        C  0.57559005  0.19652492  0.23894339     1.02500
Cr681      Cr  0.00797559  0.17809757  0.24981497     1.93700
Cr682      Cr  0.96493707  0.26534637  0.23487792     1.93200
Cr683      Cr  0.53765546  0.27094138  0.26889744     1.39100
O684        O  0.00330779  0.23748624  0.25072299    -1.23200
N685        N  0.70194379  0.00640996  0.25232184    -0.36700
N686        N  0.74824035  0.93152727  0.25639324    -0.57200
N687        N  0.80159825  0.99674596  0.25871114    -0.36700
N688        N  0.75578069  0.07174568  0.25792231    -0.57200
C689        C  0.68261270  0.97284061  0.26304798     0.26900
C690        C  0.68575196  0.04553317  0.25746292     0.26900
C691        C  0.81817794  0.95723490  0.26553036     0.26900
C692        C  0.82250864  0.02975533  0.27228829     0.26900
C693        C  0.71900834  0.90934215  0.24896681     0.35500
C694        C  0.77250705  0.90479182  0.24550287     0.35500
C695        C  0.72988447  0.09922146  0.24523364     0.35500
C696        C  0.78451775  0.09442232  0.25500123     0.35500
C697        C  0.65415175  0.99099737  0.27582578    -0.22000
C698        C  0.65600958  0.03696627  0.27202949    -0.22000
C699        C  0.84973991  0.96486458  0.28421533    -0.22000
C700        C  0.85235507  0.01070919  0.28884892    -0.22000
C701        C  0.72461972  0.86770056  0.23388948    -0.23000
C702        C  0.75873185  0.86502884  0.23121335    -0.23000
C703        C  0.74214877  0.14015183  0.23470472    -0.23000
C704        C  0.77689742  0.13716523  0.24106364    -0.23000
C705        C  0.68779124  0.92651700  0.25681412    -0.18400
C706        C  0.69556239  0.08813896  0.24566678    -0.18400
C707        C  0.81719997  0.07635793  0.26530741    -0.18400
C708        C  0.80695768  0.91539465  0.25106991    -0.18400
H709        H  0.63347887  0.97289555  0.28535905     0.14500
H710        H  0.63723993  0.06128583  0.27844848     0.14500
H711        H  0.86916132  0.94003502  0.29263393     0.14500
H712        H  0.87433911  0.02819481  0.30146928     0.14500
H713        H  0.70606867  0.84237150  0.22530174     0.12800
H714        H  0.77185077  0.83690100  0.22052515     0.12800
H715        H  0.72764017  0.16917961  0.22393979     0.12800
H716        H  0.79445851  0.16322116  0.23574891     0.12800
H717        H  0.72216310  0.00295549  0.23719096     0.26100
H718        H  0.77978047  0.00093072  0.24058764     0.26100
O719        O  0.48877592  0.81679540  0.19872474    -0.85400
O720        O  0.94631538  0.82981128  0.25433706    -0.82500
C721        C  0.92277158  0.80804882  0.23817970     0.98000
O722        O  0.92849904  0.76926294  0.22787359    -0.82500
O723        O  0.96298017  0.69753645  0.21014632    -0.85100
C724        C  0.98905967  0.68046358  0.19910242     1.02600
O725        O  0.51724688  0.68433673  0.21806892    -0.77900
O726        O  0.53437532  0.77128048  0.19698479    -0.78100
C727        C  0.51135120  0.79873610  0.18171270     1.02500
O728        O  0.54168521  0.83786021  0.24607115    -0.85400
O729        O  0.00112984  0.81756894  0.30288179    -0.82500
C730        C  0.98045211  0.79583017  0.31985851     0.98100
O731        O  0.96040518  0.76530003  0.30493169    -0.82500
O732        O  0.98647040  0.68194320  0.28605655    -0.85100
C733        C  0.51445693  0.68352906  0.30549419     1.02500
O734        O  0.53893175  0.70408535  0.29414845    -0.77900
O735        O  0.56612207  0.78161672  0.27400139    -0.78100
C736        C  0.56795399  0.82041681  0.26149487     1.02500
Cr737      Cr  0.99477228  0.82047867  0.25071443     1.93700
Cr738      Cr  0.96201125  0.73046767  0.25721136     1.93200
Cr739      Cr  0.53668711  0.73669615  0.24585752     1.39100
O740        O  0.99784192  0.76183533  0.25117288    -1.23200
N741        N  0.99144965  0.00086034  0.44206689    -0.36700
N742        N  0.99745734  0.93277536  0.99889769    -0.57200
N743        N  0.99391176  0.00227139  0.05273536    -0.36700
N744        N  0.99265640  0.07056668  0.99672983    -0.57200
C745        C  0.99466791  0.96328578  0.42225619     0.28900
C746        C  0.99994172  0.03641439  0.42220340     0.26900
C747        C  0.00457067  0.96727133  0.07480972     0.26900
C748        C  0.99515542  0.03991430  0.07319237     0.26900
C749        C  0.98928929  0.90576351  0.47016068     0.35500
C750        C  0.99771030  0.90631924  0.02850138     0.35500
C751        C  0.99187101  0.09705018  0.46702050     0.35500
C752        C  0.98461130  0.09725881  0.02385368     0.35500
C753        C  0.00400843  0.97498870  0.38869063    -0.22000
C754        C  0.00762992  0.02113255  0.38875339    -0.22000
C755        C  0.01235258  0.98294351  0.10998655    -0.22000
C756        C  0.00619262  0.02877465  0.10900446    -0.22000
C757        C  0.98476643  0.86191667  0.48149853    -0.23000
C758        C  0.99083792  0.86205669  0.01839658    -0.23000
C759        C  0.98416104  0.14110343  0.47555451    -0.23000
C760        C  0.97879418  0.14103619  0.01134770    -0.23000
C761        C  0.98917491  0.91880109  0.43372875    -0.18400
C762        C  0.99932211  0.08236835  0.43267477    -0.18400
C763        C  0.98555423  0.08374998  0.06045231    -0.18400
C764        C  0.00444666  0.92126707  0.06458804    -0.18400
H765        H  0.00828352  0.95256026  0.36668645     0.14500
H766        H  0.01469885  0.04114067  0.36646950     0.14500
H767        H  0.02086004  0.96330345  0.13401722     0.14500
H768        H  0.00949827  0.05132627  0.13201389     0.14500
H769        H  0.97868426  0.83248333  0.46492669     0.12800
H770        H  0.99002620  0.83268090  0.03556110     0.12800
H771        H  0.98236037  0.17033038  0.45794387     0.12800
H772        H  0.97247187  0.17027915  0.02664514     0.12800
H773        H  0.98102208  0.00201733  0.46629884     0.26100
H774        H  0.98235182  0.00022592  0.02632364     0.26100
C775        C  0.97889885  0.86340063  0.10014491    -0.26400
C776        C  0.50801451  0.88599358  0.09309128    -0.14500
C777        C  0.53982156  0.87171939  0.11012209     0.36200
C778        C  0.54150622  0.83714527  0.13637433    -0.25800
C779        C  0.51195768  0.81657936  0.14497885    -0.15100
C780        C  0.98076620  0.82796964  0.12498065     0.37300
N781        N  0.95055097  0.80534724  0.13178373    -0.89300
H782        H  0.95458743  0.87320578  0.08597962     0.18400
H783        H  0.56542091  0.82880108  0.15202951     0.18400
N784        N  0.56991938  0.89356445  0.10172771    -0.88400
H785        H  0.93967796  0.79138636  0.10732910     0.35700
H786        H  0.93368941  0.82930269  0.14000967     0.40800
H787        H  0.57251781  0.88679438  0.07450078     0.40500
H788        H  0.59111707  0.87964544  0.11711510     0.35300
C789        C  0.95428476  0.87524077  0.38675610    -0.26400
C790        C  0.98574341  0.88245497  0.40668853    -0.14500
C791        C  0.01268020  0.85243053  0.40361307     0.36200
C792        C  0.00838946  0.81716673  0.37874698    -0.25800
C793        C  0.97787286  0.81250408  0.35618316    -0.15100
C794        C  0.95021198  0.84048571  0.36127479     0.37300
N795        N  0.91895894  0.83624613  0.33833497    -0.89300
H796        H  0.93323262  0.89752951  0.39016897     0.18400
H797        H  0.03001299  0.79640622  0.37426806     0.18400
N798        N  0.54463445  0.85874122  0.42488338    -0.88400
H799        H  0.91390228  0.86663620  0.32434985     0.35700
H800        H  0.89989418  0.83124231  0.35495381     0.40800
H801        H  0.56287844  0.86275745  0.40714228     0.40500
H802        H  0.55053838  0.82941294  0.44011020     0.35300
C803        C  0.65579772  0.86864626  0.28734040    -0.26400
C804        C  0.65869514  0.89587152  0.25684738    -0.14500
C805        C  0.63247351  0.89660606  0.22787136     0.36200
C806        C  0.60366484  0.87118585  0.23023550    -0.25800
C807        C  0.60017261  0.84448655  0.26093812    -0.15100
C808        C  0.62675923  0.84300311  0.28971694     0.37300
N809        N  0.62430589  0.81771870  0.32221194    -0.89300
H810        H  0.67575677  0.86846640  0.30984825     0.18400
H811        H  0.58363748  0.87262408  0.20781987     0.18400
N812        N  0.63444440  0.92300349  0.19577753    -0.88400
H813        H  0.62167061  0.78372981  0.31546243     0.35700
H814        H  0.60271305  0.82856971  0.33333418     0.40800
H815        H  0.65616750  0.91334997  0.18453310     0.40500
H816        H  0.63645615  0.95701662  0.20296410     0.35300
C817        C  0.83713781  0.84138855  0.26065765    -0.26400
C818        C  0.83275337  0.88254218  0.24193063    -0.14500
C819        C  0.85539938  0.89469410  0.21723796     0.36200
C820        C  0.88350685  0.86740137  0.21375451    -0.25800
C821        C  0.88898446  0.82779598  0.23411335    -0.15100
C822        C  0.86516213  0.81376143  0.25676899     0.37300
N823        N  0.87052434  0.77298641  0.27749623    -0.89300
H824        H  0.81986876  0.83195970  0.27976693     0.18400
H825        H  0.90206704  0.87838895  0.19658966     0.18400
N826        N  0.85062196  0.93583551  0.19690162    -0.88400
H827        H  0.84987414  0.75219090  0.27048635     0.35700
H828        H  0.87096644  0.78098560  0.30502609     0.40800
H829        H  0.87192971  0.95580627  0.20346792     0.40500
H830        H  0.84912633  0.92793680  0.16933686     0.35300
C831        C  0.94361349  0.15195105  0.12918611    -0.26400
C832        C  0.96941547  0.18196553  0.14119536    -0.14500
C833        C  0.49937978  0.18216582  0.12459841     0.36200
C834        C  0.50394387  0.15024650  0.09781345    -0.25800
C835        C  0.97896715  0.11854536  0.08731024    -0.15100
C836        C  0.94801530  0.12029388  0.10201893     0.37300
N837        N  0.92156646  0.08943668  0.08979300    -0.89300
H838        H  0.92109638  0.15106333  0.14287788     0.18400
H839        H  0.52744794  0.14897522  0.08590184     0.18400
N840        N  0.52619303  0.21221119  0.13739387    -0.88400
H841        H  0.90024370  0.09583015  0.10284325     0.35700
H842        H  0.92995667  0.05693332  0.09759165     0.40800
H843        H  0.51755624  0.24505800  0.13125787     0.40500
H844        H  0.54705206  0.20698493  0.12334977     0.35300
C845        C  0.99396119  0.17786582  0.36337243    -0.26400
C846        C  0.52791436  0.18172511  0.35764842    -0.14500
C847        C  0.55243873  0.15389964  0.37728151     0.36200
C848        C  0.54241886  0.12289376  0.40252845    -0.25800
C849        C  0.50820265  0.11727272  0.40671472    -0.15100
C850        C  0.98360016  0.14513335  0.38678802     0.37300
N851        N  0.94799711  0.13980125  0.38817342    -0.89300
H852        H  0.97488921  0.19776931  0.34702431     0.18400
H853        H  0.56116684  0.10158373  0.41794329     0.18400
N854        N  0.58719322  0.15648201  0.37083715    -0.88400
H855        H  0.93887327  0.16929904  0.39907849     0.35700
H856        H  0.94293075  0.11332853  0.40520001     0.40800
H857        H  0.58893038  0.14535637  0.34438137     0.40500
H858        H  0.60206518  0.13435141  0.38806080     0.35300
C859        C  0.87227343  0.09279680  0.24315052    -0.26400
C860        C  0.84775679  0.10516348  0.26558774    -0.14500
C861        C  0.85393866  0.14205418  0.28924923     0.36200
C862        C  0.88438438  0.16589805  0.28999683    -0.25800
C863        C  0.90915085  0.15247138  0.26822913    -0.15100
C864        C  0.90296978  0.11565031  0.24451302     0.37300
N865        N  0.92739748  0.10278368  0.22078458    -0.89300
H866        H  0.86751510  0.06464256  0.22475540     0.18400
H867        H  0.88865929  0.19496880  0.30749498     0.18400
N868        N  0.82956427  0.15504082  0.31272712    -0.88400
H869        H  0.91847824  0.07614473  0.20401283     0.35700
H870        H  0.94879260  0.09065402  0.23698370     0.40800
H871        H  0.84118053  0.15343502  0.33948586     0.40500
H872        H  0.82260397  0.18858043  0.30695443     0.35300
C873        C  0.66710156  0.15906221  0.26017567    -0.26400
C874        C  0.66841448  0.12246295  0.23679652    -0.14500
C875        C  0.64068596  0.11456411  0.20995127     0.36200
C876        C  0.61129711  0.14099516  0.20950070    -0.25800
C877        C  0.60893876  0.17543956  0.23497160    -0.15100
C878        C  0.63791765  0.18565560  0.25950289     0.37300
N879        N  0.63745717  0.22137773  0.28537102    -0.89300
H880        H  0.68808648  0.16523527  0.28085529     0.18400
H881        H  0.58972960  0.13325550  0.18999950     0.18400
N882        N  0.64112240  0.07928717  0.18349842    -0.88400
H883        H  0.65683976  0.24358257  0.28152030     0.35700
H884        H  0.64245109  0.20749345  0.31148050     0.40800
H885        H  0.66474764  0.06357338  0.18483771     0.40500
H886        H  0.62381641  0.05490857  0.18937925     0.35300
C887        C  0.54026561  0.38509085  0.12161984    -0.26400
C888        C  0.51075794  0.38181013  0.09690808    -0.14500
C889        C  0.98441395  0.35426196  0.10579593     0.36200
C890        C  0.98735815  0.33257867  0.13982162    -0.25800
C891        C  0.51619778  0.33729946  0.16535306    -0.15100
C892        C  0.54341961  0.36277039  0.15562073     0.37300
N893        N  0.57306804  0.36855924  0.18109352    -0.89300
H894        H  0.56021656  0.40703732  0.11502540     0.18400
H895        H  0.96642928  0.31280023  0.14683969     0.18400
N896        N  0.95414295  0.35006440  0.08090737    -0.88400
H897        H  0.58988042  0.39030571  0.17049270     0.35700
H898        H  0.58534791  0.33726827  0.18437324     0.40800
H899        H  0.94222292  0.38160094  0.07863385     0.40500
H900        H  0.93732063  0.32805422  0.09131125     0.35300
C901        C  0.95731447  0.34486505  0.35308135    -0.26400
C902        C  0.98662647  0.33851574  0.33599459    -0.14500
C903        C  0.01786599  0.35293338  0.35460433     0.36200
C904        C  0.51880358  0.37585240  0.38768631    -0.25800
C905        C  0.98942703  0.38457205  0.40360455    -0.15100
C906        C  0.95830733  0.36783932  0.38656141     0.37300
N907        N  0.92727313  0.37425475  0.40202911    -0.89300
H908        H  0.93333597  0.33310399  0.33992117     0.18400
H909        H  0.54270750  0.38841410  0.40048747     0.18400
N910        N  0.54905613  0.34445897  0.34012021    -0.88400
H911        H  0.91177611  0.39546615  0.38458491     0.35700
H912        H  0.93121308  0.39038975  0.42711752     0.40800
H913        H  0.56477152  0.32564102  0.35919195     0.40500
H914        H  0.56061266  0.37539630  0.33658984     0.35300
C915        C  0.96115959  0.62968367  0.10492765    -0.26400
C916        C  0.99186808  0.61134264  0.09640194    -0.14500
C917        C  0.52123283  0.61690742  0.12113423     0.36200
C918        C  0.51900516  0.63885625  0.15405477    -0.25800
C919        C  0.98826494  0.65627328  0.16355997    -0.15100
C920        C  0.95908422  0.65275042  0.13797032     0.37300
N921        N  0.92750003  0.67200751  0.14551126    -0.89300
H922        H  0.93857313  0.62482586  0.08613962     0.18400
H923        H  0.54202096  0.64206605  0.17247258     0.18400
N924        N  0.55374675  0.60001524  0.11416189    -0.88400
H925        H  0.90846301  0.66494001  0.12451378     0.35700
H926        H  0.93014710  0.70704462  0.14574252     0.40800
H927        H  0.55316867  0.58604418  0.08829425     0.40500
H928        H  0.56072807  0.57423502  0.13286035     0.35300
C929        C  0.53901144  0.61014317  0.38980761    -0.26400
C930        C  0.50985740  0.61465742  0.40763052    -0.14500
C931        C  0.98428056  0.64499458  0.39352151     0.36200
C932        C  0.98778680  0.66877923  0.36135167    -0.25800
C933        C  0.51606334  0.66262826  0.34232492    -0.15100
C934        C  0.54246803  0.63400957  0.35736214     0.37300
N935        N  0.57148286  0.62689078  0.33852880    -0.89300
H936        H  0.55841645  0.58623443  0.40039392     0.18400
H937        H  0.96750139  0.69105969  0.35017309     0.18400
N938        N  0.95414322  0.64995057  0.41095265    -0.88400
H939        H  0.58794441  0.60342146  0.35247089     0.35700
H940        H  0.58450939  0.65728989  0.33888702     0.40800
H941        H  0.94151475  0.61917504  0.40887650     0.40500
H942        H  0.93782749  0.67375311  0.39726447     0.35300
N943        N  0.49869436  0.49947587  0.94608478    -0.36700
N944        N  0.99736848  0.42805940  0.50035621    -0.57200
N945        N  0.99863139  0.49705307  0.55532086    -0.36700
N946        N  0.49599323  0.56871060  0.50061013    -0.57200
C947        C  0.98892787  0.46409871  0.92439514     0.26900
C948        C  0.49515274  0.53714356  0.92521984     0.26900
C949        C  0.99622529  0.45955536  0.57570333     0.26900
C950        C  0.48936040  0.53257777  0.57489713     0.26900
C951        C  0.99884988  0.40224208  0.97055755     0.35500
C952        C  0.00540691  0.40116809  0.52973738     0.35500
C953        C  0.50424800  0.59535085  0.97335381     0.35500
C954        C  0.49782284  0.59438963  0.53086653     0.35500
C955        C  0.97904843  0.47976773  0.88938982    -0.22000
C956        C  0.48317146  0.52565308  0.88988046    -0.22000
C957        C  0.98546023  0.47138440  0.60862945    -0.22000
C958        C  0.48093290  0.51723620  0.60804379    -0.22000
C959        C  0.00717381  0.35828151  0.98103724    -0.23000
C960        C  0.01158945  0.35767780  0.51854905    -0.23000
C961        C  0.51075003  0.63857506  0.98621774    -0.23000
C962        C  0.50641768  0.63804903  0.52261036    -0.23000
C963        C  0.99168938  0.41772956  0.93416584    -0.18400
C964        C  0.50385034  0.58146652  0.93668998    -0.18400
C965        C  0.49183106  0.57880398  0.56574157    -0.18400
C966        C  0.00488740  0.41504921  0.56628399    -0.18400
H967        H  0.97048633  0.46010263  0.86560436     0.14500
H968        H  0.47795284  0.54802101  0.86675681     0.14500
H969        H  0.98142033  0.44931557  0.63095476     0.14500
H970        H  0.47322114  0.53711280  0.63011033     0.14500
H971        H  0.00983936  0.32969468  0.96350643     0.12800
H972        H  0.01793861  0.32845270  0.53559786     0.12800
H973        H  0.51747643  0.66753349  0.97090747     0.12800
H974        H  0.50963675  0.66637209  0.54097722     0.12800
H975        H  0.51115174  0.49770024  0.97226345     0.26100
H976        H  0.01014179  0.49869895  0.53174746     0.26100
O977        O  0.53657763  0.17553310  0.79729198    -0.85400
O978        O  0.96807954  0.16656815  0.77588493    -0.82500
C979        C  0.93872638  0.18086885  0.76501323     0.98000
O980        O  0.93412550  0.21691984  0.74708121    -0.82500
O981        O  0.96215088  0.29169301  0.78527707    -0.85100
C982        C  0.98551308  0.31712701  0.79920819     1.02600
O983        O  0.50998780  0.32285610  0.78151141    -0.77900
O984        O  0.53342287  0.24462231  0.81806421    -0.78100
C985        C  0.53427454  0.20229776  0.82323968     1.02500
O986        O  0.54849180  0.18097773  0.72302737    -0.85400
O987        O  0.98029688  0.17063240  0.70276673    -0.82500
C988        C  0.97098285  0.19892859  0.67821268     0.98100
O989        O  0.96585487  0.24000565  0.68511871    -0.82500
O990        O  0.98796423  0.31872139  0.71606579    -0.85100
C991        C  0.51550388  0.31693718  0.70212866     1.02500
O992        O  0.54083316  0.29662276  0.71914953    -0.77900
O993        O  0.57416806  0.22757181  0.76165564    -0.78100
C994        C  0.57559014  0.19652519  0.73894334     1.02500
Cr995      Cr  0.00797567  0.17809763  0.74981499     1.93700
Cr996      Cr  0.96493705  0.26534634  0.73487789     1.93200
Cr997      Cr  0.53765545  0.27094148  0.76889746     1.39100
O998        O  0.00330779  0.23748628  0.75072300    -1.23200
N999        N  0.70194383  0.00641006  0.75232174    -0.36700
N1000       N  0.74824035  0.93152738  0.75639308    -0.57200
N1001       N  0.80159830  0.99674602  0.75871110    -0.36700
N1002       N  0.75578072  0.07174577  0.75792239    -0.57200
C1003       C  0.68261266  0.97284070  0.76304783     0.26900
C1004       C  0.68575196  0.04553328  0.75746287     0.26900
C1005       C  0.81817799  0.95723495  0.76553020     0.26900
C1006       C  0.82250870  0.02975536  0.77228826     0.26900
C1007       C  0.71900835  0.90934224  0.74896671     0.35500
C1008       C  0.77250705  0.90479191  0.74550273     0.35500
C1009       C  0.72988452  0.09922159  0.74523374     0.35500
C1010       C  0.78451780  0.09442240  0.75500135     0.35500
C1011       C  0.65415168  0.99099745  0.77582558    -0.22000
C1012       C  0.65600955  0.03696637  0.77202936    -0.22000
C1013       C  0.84974001  0.96486460  0.78421510    -0.22000
C1014       C  0.85235516  0.01070920  0.78884878    -0.22000
C1015       C  0.72461973  0.86770061  0.73388945    -0.23000
C1016       C  0.75873185  0.86502889  0.73121329    -0.23000
C1017       C  0.74214884  0.14015197  0.73470488    -0.23000
C1018       C  0.77689749  0.13716535  0.74106382    -0.23000
C1019       C  0.68779124  0.92651708  0.75681402    -0.18400
C1020       C  0.69556242  0.08813910  0.74566679    -0.18400
C1021       C  0.81720001  0.07635798  0.76530747    -0.18400
C1022       C  0.80695769  0.91539471  0.75106976    -0.18400
H1023       H  0.63347878  0.97289562  0.78535880     0.14500
H1024       H  0.63723991  0.06128593  0.77844834     0.14500
H1025       H  0.86916144  0.94003504  0.79263361     0.14500
H1026       H  0.87433921  0.02819480  0.80146912     0.14500
H1027       H  0.70606869  0.84237150  0.72530178     0.12800
H1028       H  0.77185077  0.83690102  0.72052513     0.12800
H1029       H  0.72764028  0.16917979  0.72393996     0.12800
H1030       H  0.79445859  0.16322127  0.73574913     0.12800
H1031       H  0.72216292  0.00295567  0.73719107     0.26100
H1032       H  0.77978045  0.00093085  0.74058763     0.26100
O1033       O  0.48877595  0.81679534  0.69872468    -0.85400
O1034       O  0.94631539  0.82981136  0.75433698    -0.82500
C1035       C  0.92277159  0.80804888  0.73817963     0.98000
O1036       O  0.92849906  0.76926299  0.72787356    -0.82500
O1037       O  0.96298020  0.69753653  0.71014624    -0.85100
C1038       C  0.98905971  0.68046361  0.69910237     1.02600
O1039       O  0.51724685  0.68433667  0.71806890    -0.77900
O1040       O  0.53437534  0.77128040  0.69698477    -0.78100
C1041       C  0.51135123  0.79873602  0.68171266     1.02500
O1042       O  0.54168526  0.83786013  0.74607112    -0.85400
O1043       O  0.00112979  0.81756899  0.80288178    -0.82500
C1044       C  0.98045206  0.79583020  0.81985848     0.98100
O1045       O  0.96040516  0.76530004  0.80493165    -0.82500
O1046       O  0.98647039  0.68194320  0.78605651    -0.85100
C1047       C  0.51445693  0.68352903  0.80549419     1.02500
O1048       O  0.53893175  0.70408529  0.79414843    -0.77900
O1049       O  0.56612209  0.78161664  0.77400139    -0.78100
C1050       C  0.56795404  0.82041672  0.76149487     1.02500
Cr1051     Cr  0.99477231  0.82047870  0.75071441     1.93700
Cr1052     Cr  0.96201126  0.73046771  0.75721131     1.93200
Cr1053     Cr  0.53668711  0.73669609  0.74585750     1.39100
O1054       O  0.99784194  0.76183536  0.75117287    -1.23200
N1055       N  0.99144963  0.00086035  0.94206690    -0.36700
N1056       N  0.99745747  0.93277536  0.49889769    -0.57200
N1057       N  0.99391183  0.00227137  0.55273530    -0.36700
N1058       N  0.99265637  0.07056664  0.49672978    -0.57200
C1059       C  0.99466784  0.96328580  0.92225621     0.28900
C1060       C  0.99994167  0.03641441  0.92220341     0.26900
C1061       C  0.00457072  0.96727133  0.57480973     0.26900
C1062       C  0.99515549  0.03991430  0.57319234     0.26900
C1063       C  0.98928920  0.90576351  0.97016068     0.35500
C1064       C  0.99771043  0.90631924  0.52850138     0.35500
C1065       C  0.99187102  0.09705021  0.96702054     0.35500
C1066       C  0.98461130  0.09725877  0.52385364     0.35500
C1067       C  0.00400831  0.97498872  0.88869062    -0.22000
C1068       C  0.00762981  0.02113257  0.88875339    -0.22000
C1069       C  0.01235260  0.98294352  0.60998656    -0.22000
C1070       C  0.00619265  0.02877465  0.60900445    -0.22000
C1071       C  0.98476633  0.86191666  0.98149853    -0.23000
C1072       C  0.99083805  0.86205670  0.51839658    -0.23000
C1073       C  0.98416102  0.14110345  0.97555453    -0.23000
C1074       C  0.97879420  0.14103615  0.51134767    -0.23000
C1075       C  0.98917487  0.91880109  0.93372876    -0.18400
C1076       C  0.99932209  0.08236837  0.93267480    -0.18400
C1077       C  0.98555427  0.08374995  0.56045227    -0.18400
C1078       C  0.00444672  0.92126707  0.56458805    -0.18400
H1079       H  0.00828336  0.95256029  0.86668644     0.14500
H1080       H  0.01469872  0.04114069  0.86646948     0.14500
H1081       H  0.02086002  0.96330346  0.63401724     0.14500
H1082       H  0.00949827  0.05132629  0.63201387     0.14500
H1083       H  0.97868419  0.83248331  0.96492669     0.12800
H1084       H  0.99002632  0.83268091  0.53556110     0.12800
H1085       H  0.98236031  0.17033039  0.95794386     0.12800
H1086       H  0.97247194  0.17027913  0.52664513     0.12800
H1087       H  0.98102204  0.00201736  0.96629905     0.26100
H1088       H  0.98235203  0.00022591  0.52632386     0.26100
C1089       C  0.97889892  0.86340057  0.60014488    -0.26400
C1090       C  0.50801455  0.88599357  0.59309130    -0.14500
C1091       C  0.53982159  0.87171941  0.61012213     0.36200
C1092       C  0.54150626  0.83714523  0.63637432    -0.25800
C1093       C  0.51195773  0.81657927  0.64497881    -0.15100
C1094       C  0.98076629  0.82796957  0.62498062     0.37300
N1095       N  0.95055107  0.80534721  0.63178377    -0.89300
H1096       H  0.95458749  0.87320568  0.58597957     0.18400
H1097       H  0.56542096  0.82880103  0.65202951     0.18400
N1098       N  0.56991944  0.89356456  0.60172788    -0.88400
H1099       H  0.93967793  0.79138616  0.60732885     0.35700
H1100       H  0.93368963  0.82930242  0.64000962     0.40800
H1101       H  0.57251790  0.88679451  0.57450073     0.40500
H1102       H  0.59111692  0.87964571  0.61711510     0.35300
C1103       C  0.95428474  0.87524082  0.88675608    -0.26400
C1104       C  0.98574339  0.88245497  0.90668853    -0.14500
C1105       C  0.01268016  0.85243050  0.90361307     0.36200
C1106       C  0.00838940  0.81716672  0.87874696    -0.25800
C1107       C  0.97787281  0.81250410  0.85618314    -0.15100
C1108       C  0.95021194  0.84048577  0.86127477     0.37300
N1109       N  0.91895885  0.83624613  0.83833504    -0.89300
H1110       H  0.93323262  0.89752960  0.89016895     0.18400
H1111       H  0.03001294  0.79640620  0.87426805     0.18400
N1112       N  0.54463449  0.85874123  0.92488331    -0.88400
H1113       H  0.91390219  0.86663672  0.82434967     0.35700
H1114       H  0.89989446  0.83124251  0.85495354     0.40800
H1115       H  0.56287855  0.86275750  0.90714211     0.40500
H1116       H  0.55053841  0.82941311  0.94011002     0.35300
C1117       C  0.65579775  0.86864633  0.78734040    -0.26400
C1118       C  0.65869516  0.89587153  0.75684734    -0.14500
C1119       C  0.63247356  0.89660590  0.72787128     0.36200
C1120       C  0.60366491  0.87118564  0.73023545    -0.25800
C1121       C  0.60017267  0.84448645  0.76093812    -0.15100
C1122       C  0.62675927  0.84300313  0.78971696     0.37300
N1123       N  0.62430596  0.81771876  0.82221199    -0.89300
H1124       H  0.67575678  0.86846655  0.80984826     0.18400
H1125       H  0.58363757  0.87262377  0.70781979     0.18400
N1126       N  0.63444449  0.92300311  0.69577735    -0.88400
H1127       H  0.62167067  0.78373008  0.81546259     0.35700
H1128       H  0.60271295  0.82856991  0.83333428     0.40800
H1129       H  0.65616739  0.91334970  0.68453309     0.40500
H1130       H  0.63645621  0.95701671  0.70296394     0.35300
C1131       C  0.83713778  0.84138858  0.76065749    -0.26400
C1132       C  0.83275335  0.88254220  0.74193046    -0.14500
C1133       C  0.85539935  0.89469411  0.71723778     0.36200
C1134       C  0.88350686  0.86740141  0.71375440    -0.25800
C1135       C  0.88898447  0.82779604  0.73411326    -0.15100
C1136       C  0.86516212  0.81376148  0.75676888     0.37300
N1137       N  0.87052434  0.77298648  0.77749612    -0.89300
H1138       H  0.81986873  0.83195973  0.77976676     0.18400
H1139       H  0.90206705  0.87838900  0.69658956     0.18400
N1140       N  0.85062189  0.93583546  0.69690139    -0.88400
H1141       H  0.84987419  0.75219097  0.77048629     0.35700
H1142       H  0.87096642  0.78098576  0.80502618     0.40800
H1143       H  0.87192962  0.95580630  0.70346765     0.40500
H1144       H  0.84912627  0.92793663  0.66933650     0.35300
C1145       C  0.94361352  0.15195094  0.62918610    -0.26400
C1146       C  0.96941551  0.18196541  0.64119537    -0.14500
C1147       C  0.49937980  0.18216578  0.62459841     0.36200
C1148       C  0.50394388  0.15024649  0.59781343    -0.25800
C1149       C  0.97896719  0.11854531  0.58731020    -0.15100
C1150       C  0.94801533  0.12029381  0.60201889     0.37300
N1151       N  0.92156652  0.08943660  0.58979291    -0.89300
H1152       H  0.92109641  0.15106321  0.64287786     0.18400
H1153       H  0.52744794  0.14897522  0.58590180     0.18400
N1154       N  0.52619307  0.21221110  0.63739393    -0.88400
H1155       H  0.90024361  0.09583009  0.60284327     0.35700
H1156       H  0.92995667  0.05693339  0.59759145     0.40800
H1157       H  0.51755634  0.24505789  0.63125796     0.40500
H1158       H  0.54705212  0.20698480  0.62334982     0.35300
C1159       C  0.99396116  0.17786583  0.86337242    -0.26400
C1160       C  0.52791432  0.18172512  0.85764840    -0.14500
C1161       C  0.55243867  0.15389967  0.87728153     0.36200
C1162       C  0.54241879  0.12289381  0.90252848    -0.25800
C1163       C  0.50820257  0.11727275  0.90671471    -0.15100
C1164       C  0.98360014  0.14513332  0.88678799     0.37300
N1165       N  0.94799708  0.13980113  0.88817331    -0.89300
H1166       H  0.97488918  0.19776928  0.84702428     0.18400
H1167       H  0.56116675  0.10158381  0.91794335     0.18400
N1168       N  0.58719320  0.15648200  0.87083730    -0.88400
H1169       H  0.93887318  0.16929888  0.89907835     0.35700
H1170       H  0.94293073  0.11332838  0.90519989     0.40800
H1171       H  0.58893035  0.14535622  0.84438120     0.40500
H1172       H  0.60206493  0.13435177  0.88806068     0.35300
C1173       C  0.87227341  0.09279688  0.74315048    -0.26400
C1174       C  0.84775683  0.10516353  0.76558776    -0.14500
C1175       C  0.85393873  0.14205421  0.78924926     0.36200
C1176       C  0.88438449  0.16589799  0.78999688    -0.25800
C1177       C  0.90915093  0.15247131  0.76822914    -0.15100
C1178       C  0.90296978  0.11565034  0.74451296     0.37300
N1179       N  0.92739743  0.10278371  0.72078445    -0.89300
H1180       H  0.86751502  0.06464271  0.72475530     0.18400
H1181       H  0.88865945  0.19496872  0.80749505     0.18400
N1182       N  0.82956431  0.15504100  0.81272707    -0.88400
H1183       H  0.91847816  0.07614486  0.70401272     0.35700
H1184       H  0.94879250  0.09065406  0.73698348     0.40800
H1185       H  0.84118052  0.15343525  0.83948585     0.40500
H1186       H  0.82260408  0.18858060  0.80695431     0.35300
C1187       C  0.66710167  0.15906249  0.76017552    -0.26400
C1188       C  0.66841451  0.12246310  0.73679647    -0.14500
C1189       C  0.64068593  0.11456423  0.70995128     0.36200
C1190       C  0.61129722  0.14099556  0.70950053    -0.25800
C1191       C  0.60893888  0.17543997  0.73497142    -0.15100
C1192       C  0.63791776  0.18565590  0.75950277     0.37300
N1193       N  0.63745727  0.22137793  0.78537099    -0.89300
H1194       H  0.68808659  0.16523554  0.78085513     0.18400
H1195       H  0.58972970  0.13325594  0.68999934     0.18400
N1196       N  0.64112215  0.07928687  0.68349875    -0.88400
H1197       H  0.65683946  0.24358210  0.78152079     0.35700
H1198       H  0.64245106  0.20749292  0.81148107     0.40800
H1199       H  0.66474707  0.06357272  0.68483821     0.40500
H1200       H  0.62381575  0.05490850  0.68937983     0.35300
C1201       C  0.54026560  0.38509084  0.62161985    -0.26400
C1202       C  0.51075794  0.38181010  0.59690807    -0.14500
C1203       C  0.98441398  0.35426188  0.60579588     0.36200
C1204       C  0.98735816  0.33257859  0.63982156    -0.25800
C1205       C  0.51619776  0.33729946  0.66535306    -0.15100
C1206       C  0.54341959  0.36277040  0.65562074     0.37300
N1207       N  0.57306802  0.36855921  0.68109353    -0.89300
H1208       H  0.56021654  0.40703732  0.61502541     0.18400
H1209       H  0.96642928  0.31280014  0.64683961     0.18400
N1210       N  0.95414301  0.35006431  0.58090729    -0.88400
H1211       H  0.58988048  0.39030576  0.67049264     0.35700
H1212       H  0.58534782  0.33726843  0.68437324     0.40800
H1213       H  0.94222295  0.38160087  0.57863379     0.40500
H1214       H  0.93732067  0.32805405  0.59131113     0.35300
C1215       C  0.95731445  0.34486501  0.85308138    -0.26400
C1216       C  0.98662643  0.33851572  0.83599458    -0.14500
C1217       C  0.01786596  0.35293342  0.85460429     0.36200
C1218       C  0.51880354  0.37585241  0.88768629    -0.25800
C1219       C  0.98942703  0.38457209  0.90360454    -0.15100
C1220       C  0.95830732  0.36783934  0.88656142     0.37300
N1221       N  0.92727317  0.37425481  0.90202922    -0.89300
H1222       H  0.93333594  0.33310394  0.83992125     0.18400
H1223       H  0.54270746  0.38841410  0.90048744     0.18400
N1224       N  0.54905608  0.34445889  0.84012020    -0.88400
H1225       H  0.91177595  0.39546643  0.88458467     0.35700
H1226       H  0.93121300  0.39038959  0.92711709     0.40800
H1227       H  0.56477132  0.32564122  0.85919170     0.40500
H1228       H  0.56061272  0.37539665  0.83658974     0.35300
C1229       C  0.96115962  0.62968371  0.60492758    -0.26400
C1230       C  0.99186810  0.61134262  0.59640189    -0.14500
C1231       C  0.52123282  0.61690738  0.62113421     0.36200
C1232       C  0.51900513  0.63885622  0.65405474    -0.25800
C1233       C  0.98826498  0.65627330  0.66355991    -0.15100
C1234       C  0.95908427  0.65275047  0.63797026     0.37300
N1235       N  0.92750000  0.67200742  0.64551113    -0.89300
H1236       H  0.93857318  0.62482591  0.58613953     0.18400
H1237       H  0.54202092  0.64206602  0.67247255     0.18400
N1238       N  0.55374672  0.60001522  0.61416174    -0.88400
H1239       H  0.90846341  0.66494022  0.62451413     0.35700
H1240       H  0.93014722  0.70704532  0.64574248     0.40800
H1241       H  0.55316870  0.58604438  0.58829475     0.40500
H1242       H  0.56072817  0.57423457  0.63286069     0.35300
C1243       C  0.53901137  0.61014305  0.88980758    -0.26400
C1244       C  0.50985736  0.61465742  0.90763052    -0.14500
C1245       C  0.98428051  0.64499470  0.89352153     0.36200
C1246       C  0.98778678  0.66877935  0.86135169    -0.25800
C1247       C  0.51606335  0.66262825  0.84232493    -0.15100
C1248       C  0.54246800  0.63400949  0.85736213     0.37300
N1249       N  0.57148286  0.62689058  0.83852884    -0.89300
H1250       H  0.55841633  0.58623422  0.90039388     0.18400
H1251       H  0.96750140  0.69105987  0.85017311     0.18400
N1252       N  0.95414315  0.64995078  0.91095264    -0.88400
H1253       H  0.58794415  0.60342157  0.85247071     0.35700
H1254       H  0.58450952  0.65729002  0.83888711     0.40800
H1255       H  0.94151464  0.61917512  0.90887645     0.40500
H1256       H  0.93782759  0.67375311  0.89726455     0.35300
loop_ 
_geom_bond_atom_site_label_1 
_geom_bond_atom_site_label_2 
_geom_bond_distance 
_geom_bond_site_symmetry_2 
_ccdc_geom_bond_type 
N1            C6   1.355       .  A
N1          C633   1.356       .  A
N1           H33   1.038   1_655  S
N2           C10   1.355       .  A
N2          C323   1.353   1_554  A
N3            C7   1.354       .  A
N3          C636   1.355       .  A
N3           H34   1.036       .  S
N4           C12   1.353       .  A
N4          C325   1.355   1_654  A
C5          N629   1.356       .  A
C5           C13   1.389       .  A
C5           C21   1.422       .  A
C6           C22   1.417   1_655  A
C6           C14   1.386       .  A
C7           C15   1.387       .  A
C7           C24   1.417       .  A
C8          N631   1.355       .  A
C8           C23   1.420       .  A
C8           C16   1.389       .  A
C9          N316   1.353       .  A
C9           C21   1.420       .  A
C9           C17   1.386       .  A
C10          C24   1.420       .  A
C10          C18   1.386       .  A
C11         N318   1.355   1_455  A
C11          C19   1.386       .  A
C11          C22   1.420       .  A
C12          C20   1.386   1_655  A
C12          C23   1.420       .  A
C13         C642   1.373       .  A
C13          H25   1.082       .  S
C14         C641   1.373       .  A
C14          H26   1.082       .  S
C15         C644   1.371       .  A
C15          H27   1.082       .  S
C16         C643   1.371       .  A
C16          H28   1.082       .  S
C17         C332   1.382       .  A
C17          H29   1.082       .  S
C18         C331   1.382   1_554  A
C18          H30   1.082       .  S
C19         C334   1.381       .  A
C19          H31   1.082       .  S
C20         C333   1.381   1_554  A
C20          H32   1.082       .  S
C21         C277   1.498       .  S
C22         C302   1.500       .  S
C23         C916   1.494       .  S
C24         C888   1.498       .  S
O35          C43   1.261       .  A
O35        Cr681   1.983       .  S
O36          C37   1.262       .  A
O36         Cr53   1.991       .  S
C37         C235   1.473       .  S
C37          O38   1.259       .  A
O38         Cr54   1.987       .  S
O39          C40   1.268       .  A
O39         Cr54   2.043       .  S
C40         C274   1.502       .  S
C40         O669   1.253       .  A
O41         C668   1.253   1_455  A
O41         Cr55   1.976       .  S
O42          C43   1.270       .  A
O42         Cr55   2.008       .  S
C43         C218   1.463       .  S
O44          C52   1.262       .  A
O44        Cr681   1.998       .  S
O45          C46   1.258       .  A
O45         Cr53   1.966       .  S
C46         C204   1.458       .  S
C46          O47   1.266       .  A
O47         Cr54   1.999       .  S
O48         C677   1.270       .  A
O48         Cr54   2.004       .  S
C49         C263   1.494       .  S
C49          O50   1.273       .  A
C49         O676   1.270   1_455  A
O50         Cr55   2.013       .  S
O51          C52   1.255       .  A
O51         Cr55   1.978       .  S
C52         C249   1.489       .  S
Cr53        O663   1.983       .  S
Cr53        O672   1.998       .  S
Cr53         O56   1.772       .  S
Cr54         O56   1.771       .  S
Cr55        O684   1.770       .  S
O56        Cr683   1.770       .  S
N57          C62   1.348       .  A
N57          C61   1.354   1_545  A
N57          H89   1.041       .  S
N58          C65   1.346       .  A
N58          C66   1.346       .  A
N59          C64   1.353   1_565  A
N59          C63   1.349       .  A
N59          H90   1.042   1_565  S
N60          C67   1.350       .  A
N60          C68   1.351       .  A
C61          C69   1.387       .  A
C61          C77   1.412       .  A
C62          C78   1.411       .  A
C62          C70   1.387       .  A
C63          C71   1.385       .  A
C63          C80   1.410       .  A
C64          C79   1.416       .  A
C64          C72   1.389       .  A
C65          C77   1.404       .  A
C65          C73   1.385       .  A
C66          C80   1.405       .  A
C66          C74   1.387       .  A
C67          C75   1.387       .  A
C67          C78   1.414       .  A
C68          C76   1.386       .  A
C68          C79   1.415       .  A
C69          C70   1.375   1_565  A
C69          H81   1.082       .  S
C70          H82   1.082       .  S
C71          C72   1.375   1_565  A
C71          H83   1.083       .  S
C72          H84   1.082       .  S
C73          C74   1.379       .  A
C73          H85   1.082       .  S
C74          H86   1.082       .  S
C75          C76   1.381       .  A
C75          H87   1.082       .  S
C76          H88   1.082       .  S
C77         C176   1.482       .  S
C78         C246   1.488       .  S
C79         C232   1.496       .  S
C80         C190   1.480       .  S
O91          C99   1.275   1_655  A
O91        Cr737   1.918       .  S
O92          C93   1.241       .  A
O92        Cr109   1.972       .  S
C93         C193   1.457       .  S
C93          O94   1.242       .  A
O94        Cr110   1.980       .  S
O95          C96   1.265       .  A
O95        Cr110   2.007       .  S
C96         C291   1.500       .  S
C96         O725   1.261       .  A
O97         C724   1.261   1_455  A
O97        Cr111   1.980       .  S
O98          C99   1.300       .  A
O98        Cr111   2.073       .  S
C99         C151   1.463       .  S
O100        C108   1.241       .  A
O100       Cr737   1.974   1_455  S
O101        C102   1.275       .  A
O101       Cr109   1.923       .  S
C102        C165   1.451       .  S
C102        O103   1.296       .  A
O103       Cr110   2.059       .  S
O104        C733   1.257       .  A
O104       Cr110   1.972       .  S
C105        C305   1.493       .  S
C105        O106   1.270       .  A
C105        O732   1.257   1_455  A
O106       Cr111   2.026       .  S
O107        C108   1.246       .  A
O107       Cr111   1.999       .  S
C108        C179   1.480       .  S
Cr109       O719   1.918       .  S
Cr109       O728   1.974       .  S
Cr109       O112   1.744       .  S
Cr110       O112   1.750       .  S
Cr111       O740   1.747   1_455  S
O112       Cr739   1.747       .  S
N113        C118   1.354       .  A
N113        C117   1.350   1_545  A
N113        H145   1.035       .  S
N114        C122   1.347   1_556  A
N114        C435   1.346       .  A
N115        C120   1.350       .  A
N115        C119   1.355   1_545  A
N115        H146   1.034       .  S
N116        C124   1.348   1_556  A
N116        C437   1.349       .  A
C117        C125   1.385       .  A
C117        C133   1.413       .  A
C118        C134   1.420       .  A
C118        C126   1.389       .  A
C119        C127   1.387       .  A
C119        C136   1.418       .  A
C120        C135   1.417       .  A
C120        C128   1.387       .  A
C121        N428   1.346       .  A
C121        C133   1.404       .  A
C121        C129   1.387       .  A
C122        C136   1.407       .  A
C122        C130   1.388       .  A
C123        N430   1.349       .  A
C123        C131   1.386       .  A
C123        C134   1.411       .  A
C124        C132   1.387       .  A
C124        C135   1.410       .  A
C125        C126   1.379   1_565  A
C125        H137   1.082       .  S
C126        H138   1.082       .  S
C127        C128   1.380   1_565  A
C127        H139   1.082       .  S
C128        H140   1.082       .  S
C129        C444   1.361       .  A
C129        H141   1.082       .  S
C130        C443   1.361   1_554  A
C130        H142   1.081       .  S
C131        C446   1.369       .  A
C131        H143   1.081       .  S
C132        C445   1.369   1_554  A
C132        H144   1.082       .  S
C133        C162   1.471       .  S
C134        C849   1.486       .  S
C135        C207   1.480       .  S
C136        C776   1.480       .  S
C147        C152   1.392       .  A
C147        C776   1.398       .  A
C147        H154   1.084       .  S
C148        C149   1.410       .  A
C148        C775   1.398   1_455  A
C148        C764   1.480       .  S
C149        C150   1.408       .  A
C149        N156   1.437       .  S
C150        C151   1.403       .  A
C150        H155   1.083       .  S
C151        C780   1.410   1_455  A
C152        C779   1.410       .  A
C152        N153   1.434       .  S
N153        H157   1.046       .  S
N153        H158   1.045       .  S
N156        H159   1.047       .  S
N156        H160   1.044       .  S
C161        C162   1.399       .  A
C161        C166   1.398       .  A
C161        H168   1.084       .  S
C162        C163   1.405       .  A
C163        C164   1.395       .  A
C163        N798   1.433       .  S
C164        C165   1.402       .  A
C164        H169   1.085       .  S
C165        C166   1.406       .  A
C166        N167   1.431       .  S
N167        H171   1.045       .  S
N167        H172   1.046       .  S
N170        C791   1.433       .  S
N170        H173   1.045       .  S
N170        H174   1.046       .  S
C175        C176   1.405       .  A
C175        C180   1.404       .  A
C175        H182   1.084       .  S
C176        C177   1.409       .  A
C177        C178   1.393       .  A
C177        N184   1.434       .  S
C178        C179   1.407       .  A
C178        H183   1.084       .  S
C179        C180   1.414       .  A
C180        N181   1.432       .  S
N181        H185   1.043       .  S
N181        H186   1.047       .  S
N184        H187   1.044       .  S
N184        H188   1.046       .  S
C189        C190   1.403       .  A
C189        C194   1.402       .  A
C189        H196   1.084       .  S
C190        C191   1.410       .  A
C191        C192   1.396       .  A
C191        N198   1.433       .  S
C192        C193   1.397       .  A
C192        H197   1.084       .  S
C193        C194   1.407       .  A
C194        N195   1.433       .  S
N195        H199   1.043       .  S
N195        H200   1.047       .  S
N198        H201   1.047       .  S
N198        H202   1.044       .  S
C203        C204   1.402       .  A
C203        C208   1.404       .  A
C203        H210   1.084       .  S
C204        C833   1.409       .  A
C205        C206   1.401   1_655  A
C205        C832   1.409       .  A
C205        N212   1.438   1_655  S
C206        C835   1.400   1_455  A
C206        H211   1.084       .  S
C207        C208   1.409       .  A
C207        C834   1.400       .  A
C208        N209   1.438       .  S
N209        H213   1.044       .  S
N209        H214   1.047       .  S
N212        H215   1.046       .  S
N212        H216   1.044       .  S
C217        C222   1.399       .  A
C217        C846   1.402       .  A
C217        H224   1.085       .  S
C218        C219   1.408       .  A
C218        C845   1.402   1_455  A
C219        C220   1.405       .  A
C219        N226   1.438       .  S
C220        C221   1.404       .  A
C220        H225   1.084       .  S
C221        C850   1.416   1_455  A
C221        C762   1.486   1_455  S
C222        C849   1.416       .  A
C222        N223   1.439       .  S
N223        H227   1.046       .  S
N223        H228   1.043       .  S
N226        H229   1.046       .  S
N226        H230   1.045       .  S
C231        C232   1.404       .  A
C231        C236   1.402       .  A
C231        H238   1.084       .  S
C232        C233   1.410       .  A
C233        C234   1.410       .  A
C233        N240   1.431       .  S
C234        C235   1.404       .  A
C234        H239   1.084       .  S
C235        C236   1.410       .  A
C236        N237   1.438       .  S
N237        H241   1.046       .  S
N237        H242   1.045       .  S
N240        H243   1.045       .  S
N240        H244   1.046       .  S
C245        C246   1.396       .  A
C245        C250   1.399       .  A
C245        H252   1.084       .  S
C246        C247   1.420       .  A
C247        C248   1.403       .  A
C247        N254   1.438       .  S
C248        C249   1.404       .  A
C248        H253   1.084       .  S
C249        C250   1.420       .  A
C250        N251   1.433       .  S
N251        H255   1.044       .  S
N251        H256   1.048       .  S
N254        H257   1.044       .  S
N254        H258   1.046       .  S
C259        C260   1.409       .  A
C259        C264   1.415       .  A
C259        H266   1.083       .  S
C260        C889   1.407   1_455  A
C260        C652   1.498       .  S
C261        C262   1.407       .  A
C261        C888   1.407       .  A
C261        N268   1.438       .  S
C262        C891   1.410       .  A
C262        H267   1.082       .  S
C263        C264   1.411       .  A
C263        C890   1.410   1_455  A
C264        N265   1.436       .  S
N265        H269   1.045       .  S
N265        H270   1.046       .  S
N268        H271   1.045       .  S
N268        H272   1.047       .  S
C273        C274   1.407       .  A
C273        C278   1.415       .  A
C273        H280   1.083       .  S
C274        C275   1.422       .  A
C275        C904   1.401       .  A
C275        N910   1.434       .  S
C276        C903   1.401       .  A
C276        C905   1.396   1_455  A
C276        H281   1.084       .  S
C277        C278   1.420       .  A
C277        C904   1.396       .  A
C278        N279   1.437       .  S
N279        H283   1.046       .  S
N279        H284   1.044       .  S
N282        C903   1.434       .  S
N282        H285   1.045       .  S
N282        H286   1.046       .  S
C287        C288   1.407       .  A
C287        C292   1.416       .  A
C287        H294   1.083       .  S
C288        C917   1.412       .  A
C288        C651   1.494       .  S
C289        C290   1.397       .  A
C289        C916   1.412   1_455  A
C289        N296   1.439       .  S
C290        C919   1.410   1_455  A
C290        H295   1.083       .  S
C291        C292   1.418       .  A
C291        C918   1.410       .  A
C292        N293   1.437       .  S
N293        H297   1.045       .  S
N293        H298   1.046       .  S
N296        H299   1.044       .  S
N296        H300   1.045       .  S
C301        C302   1.410       .  A
C301        C306   1.416       .  A
C301        H308   1.083       .  S
C302        C931   1.407   1_455  A
C303        C304   1.407       .  A
C303        C930   1.407       .  A
C303        N310   1.438       .  S
C304        C933   1.411       .  A
C304        H309   1.083       .  S
C305        C306   1.409       .  A
C305        C932   1.411   1_455  A
C306        N307   1.436       .  S
N307        H311   1.046       .  S
N307        H312   1.045       .  S
N310        H313   1.046       .  S
N310        H314   1.045       .  S
N315        C320   1.355       .  A
N315        C947   1.356       .  A
N315        H347   1.038   1_655  S
N316        C324   1.355       .  A
N317        C950   1.355       .  A
N317        C321   1.354       .  A
N317        H348   1.036       .  S
N318        C326   1.353       .  A
C319        N943   1.356       .  A
C319        C327   1.389       .  A
C319        C335   1.422       .  A
C320        C336   1.417   1_655  A
C320        C328   1.386       .  A
C321        C329   1.387       .  A
C321        C338   1.417       .  A
C322        N945   1.355       .  A
C322        C337   1.420       .  A
C322        C330   1.389       .  A
C323        C335   1.420       .  A
C323        C331   1.386       .  A
C324        C338   1.420       .  A
C324        C332   1.386       .  A
C325        C333   1.386       .  A
C325        C336   1.420       .  A
C326        C334   1.386   1_655  A
C326        C337   1.420       .  A
C327        C956   1.373       .  A
C327        H339   1.082       .  S
C328        C955   1.373       .  A
C328        H340   1.082       .  S
C329        C958   1.371       .  A
C329        H341   1.082       .  S
C330        C957   1.371       .  A
C330        H342   1.082       .  S
C331        H343   1.082       .  S
C332        H344   1.082       .  S
C333        H345   1.082       .  S
C334        H346   1.082       .  S
C335        C591   1.498       .  S
C336        C616   1.500       .  S
C337       C1230   1.494       .  S
C338       C1202   1.498       .  S
O349        C357   1.261       .  A
O349       Cr995   1.983       .  S
O350        C351   1.262       .  A
O350       Cr367   1.991       .  S
C351        C549   1.473       .  S
C351        O352   1.259       .  A
O352       Cr368   1.987       .  S
O353        C354   1.268       .  A
O353       Cr368   2.043       .  S
C354        C588   1.502       .  S
C354        O983   1.253       .  A
O355        C982   1.253   1_455  A
O355       Cr369   1.976       .  S
O356        C357   1.270       .  A
O356       Cr369   2.008       .  S
C357        C532   1.463       .  S
O358        C366   1.262       .  A
O358       Cr995   1.998       .  S
O359        C360   1.258       .  A
O359       Cr367   1.966       .  S
C360        C518   1.458       .  S
C360        O361   1.266       .  A
O361       Cr368   1.999       .  S
O362        C991   1.270       .  A
O362       Cr368   2.004       .  S
C363        C577   1.494       .  S
C363        O990   1.270   1_455  A
C363        O364   1.273       .  A
O364       Cr369   2.013       .  S
O365        C366   1.255       .  A
O365       Cr369   1.978       .  S
C366        C563   1.489       .  S
Cr367       O977   1.983       .  S
Cr367       O986   1.998       .  S
Cr367       O370   1.772       .  S
Cr368       O370   1.771       .  S
Cr369       O998   1.770       .  S
O370       Cr997   1.770       .  S
N371        C376   1.348       .  A
N371        C375   1.354   1_545  A
N371        H403   1.041       .  S
N372        C379   1.346       .  A
N372        C380   1.346       .  A
N373        C378   1.353   1_565  A
N373        C377   1.349       .  A
N373        H404   1.042   1_565  S
N374        C381   1.350       .  A
N374        C382   1.351       .  A
C375        C383   1.387       .  A
C375        C391   1.412       .  A
C376        C392   1.411       .  A
C376        C384   1.387       .  A
C377        C385   1.385       .  A
C377        C394   1.410       .  A
C378        C393   1.416       .  A
C378        C386   1.389       .  A
C379        C391   1.404       .  A
C379        C387   1.385       .  A
C380        C394   1.405       .  A
C380        C388   1.387       .  A
C381        C389   1.387       .  A
C381        C392   1.414       .  A
C382        C390   1.386       .  A
C382        C393   1.415       .  A
C383        C384   1.375   1_565  A
C383        H395   1.082       .  S
C384        H396   1.082       .  S
C385        C386   1.375   1_565  A
C385        H397   1.083       .  S
C386        H398   1.082       .  S
C387        C388   1.379       .  A
C387        H399   1.082       .  S
C388        H400   1.082       .  S
C389        C390   1.381       .  A
C389        H401   1.082       .  S
C390        H402   1.082       .  S
C391        C490   1.482       .  S
C392        C560   1.488       .  S
C393        C546   1.496       .  S
C394        C504   1.480       .  S
O405        C413   1.275   1_655  A
O405      Cr1051   1.918       .  S
O406        C407   1.241       .  A
O406       Cr423   1.972       .  S
C407        C507   1.457       .  S
C407        O408   1.242       .  A
O408       Cr424   1.980       .  S
O409        C410   1.265       .  A
O409       Cr424   2.007       .  S
C410        C605   1.500       .  S
C410       O1039   1.261       .  A
O411       C1038   1.261   1_455  A
O411       Cr425   1.980       .  S
O412        C413   1.300       .  A
O412       Cr425   2.073       .  S
C413        C465   1.463       .  S
O414        C422   1.241       .  A
O414      Cr1051   1.974   1_455  S
O415        C416   1.275       .  A
O415       Cr423   1.923       .  S
C416        C479   1.451       .  S
C416        O417   1.296       .  A
O417       Cr424   2.059       .  S
O418       C1047   1.257       .  A
O418       Cr424   1.972       .  S
C419        C619   1.493       .  S
C419       O1046   1.257   1_455  A
C419        O420   1.270       .  A
O420       Cr425   2.026       .  S
O421        C422   1.246       .  A
O421       Cr425   1.999       .  S
C422        C493   1.480       .  S
Cr423      O1033   1.918       .  S
Cr423      O1042   1.974       .  S
Cr423       O426   1.744       .  S
Cr424       O426   1.750       .  S
Cr425      O1054   1.747   1_455  S
O426      Cr1053   1.747       .  S
N427        C432   1.354       .  A
N427        C431   1.350   1_545  A
N427        H459   1.035       .  S
N428        C436   1.347       .  A
N429        C434   1.350       .  A
N429        C433   1.355   1_545  A
N429        H460   1.034       .  S
N430        C438   1.348       .  A
C431        C439   1.385       .  A
C431        C447   1.413       .  A
C432        C448   1.420       .  A
C432        C440   1.389       .  A
C433        C441   1.387       .  A
C433        C450   1.418       .  A
C434        C449   1.417       .  A
C434        C442   1.387       .  A
C435        C447   1.404       .  A
C435        C443   1.387       .  A
C436        C450   1.407       .  A
C436        C444   1.388       .  A
C437        C445   1.386       .  A
C437        C448   1.411       .  A
C438        C446   1.387       .  A
C438        C449   1.410       .  A
C439        C440   1.379   1_565  A
C439        H451   1.082       .  S
C440        H452   1.082       .  S
C441        C442   1.380   1_565  A
C441        H453   1.082       .  S
C442        H454   1.082       .  S
C443        H455   1.082       .  S
C444        H456   1.081       .  S
C445        H457   1.081       .  S
C446        H458   1.082       .  S
C447        C476   1.471       .  S
C448       C1163   1.486       .  S
C449        C521   1.480       .  S
C450       C1090   1.480       .  S
C461       C1090   1.398       .  A
C461        C466   1.392       .  A
C461        H468   1.084       .  S
C462       C1089   1.398   1_455  A
C462        C463   1.410       .  A
C462       C1078   1.480       .  S
C463        C464   1.408       .  A
C463        N470   1.437       .  S
C464        C465   1.403       .  A
C464        H469   1.083       .  S
C465       C1094   1.410   1_455  A
C466       C1093   1.410       .  A
C466        N467   1.434       .  S
N467        H471   1.046       .  S
N467        H472   1.045       .  S
N470        H473   1.047       .  S
N470        H474   1.044       .  S
C475        C476   1.399       .  A
C475        C480   1.398       .  A
C475        H482   1.084       .  S
C476        C477   1.405       .  A
C477        C478   1.395       .  A
C477       N1112   1.433       .  S
C478        C479   1.402       .  A
C478        H483   1.085       .  S
C479        C480   1.406       .  A
C480        N481   1.431       .  S
N481        H485   1.045       .  S
N481        H486   1.046       .  S
N484       C1105   1.433       .  S
N484        H487   1.045       .  S
N484        H488   1.046       .  S
C489        C490   1.405       .  A
C489        C494   1.404       .  A
C489        H496   1.084       .  S
C490        C491   1.409       .  A
C491        C492   1.393       .  A
C491        N498   1.434       .  S
C492        C493   1.407       .  A
C492        H497   1.084       .  S
C493        C494   1.414       .  A
C494        N495   1.432       .  S
N495        H499   1.043       .  S
N495        H500   1.047       .  S
N498        H501   1.044       .  S
N498        H502   1.046       .  S
C503        C504   1.403       .  A
C503        C508   1.402       .  A
C503        H510   1.084       .  S
C504        C505   1.410       .  A
C505        C506   1.396       .  A
C505        N512   1.433       .  S
C506        C507   1.397       .  A
C506        H511   1.084       .  S
C507        C508   1.407       .  A
C508        N509   1.433       .  S
N509        H513   1.043       .  S
N509        H514   1.047       .  S
N512        H515   1.047       .  S
N512        H516   1.044       .  S
C517        C518   1.402       .  A
C517        C522   1.404       .  A
C517        H524   1.084       .  S
C518       C1147   1.409       .  A
C519       C1146   1.409       .  A
C519        C520   1.401   1_655  A
C519        N526   1.438   1_655  S
C520       C1149   1.400   1_455  A
C520        H525   1.084       .  S
C521       C1148   1.400       .  A
C521        C522   1.409       .  A
C522        N523   1.438       .  S
N523        H527   1.044       .  S
N523        H528   1.047       .  S
N526        H529   1.046       .  S
N526        H530   1.044       .  S
C531       C1160   1.402       .  A
C531        C536   1.399       .  A
C531        H538   1.085       .  S
C532       C1159   1.402   1_455  A
C532        C533   1.408       .  A
C533        C534   1.405       .  A
C533        N540   1.438       .  S
C534        C535   1.404       .  A
C534        H539   1.084       .  S
C535       C1164   1.416   1_455  A
C535       C1076   1.486   1_455  S
C536       C1163   1.416       .  A
C536        N537   1.439       .  S
N537        H541   1.046       .  S
N537        H542   1.043       .  S
N540        H543   1.046       .  S
N540        H544   1.045       .  S
C545        C546   1.404       .  A
C545        C550   1.402       .  A
C545        H552   1.084       .  S
C546        C547   1.410       .  A
C547        C548   1.410       .  A
C547        N554   1.431       .  S
C548        C549   1.404       .  A
C548        H553   1.084       .  S
C549        C550   1.410       .  A
C550        N551   1.438       .  S
N551        H555   1.046       .  S
N551        H556   1.045       .  S
N554        H557   1.045       .  S
N554        H558   1.046       .  S
C559        C560   1.396       .  A
C559        C564   1.399       .  A
C559        H566   1.084       .  S
C560        C561   1.420       .  A
C561        C562   1.403       .  A
C561        N568   1.438       .  S
C562        C563   1.404       .  A
C562        H567   1.084       .  S
C563        C564   1.420       .  A
C564        N565   1.433       .  S
N565        H569   1.044       .  S
N565        H570   1.048       .  S
N568        H571   1.044       .  S
N568        H572   1.046       .  S
C573        C574   1.409       .  A
C573        C578   1.415       .  A
C573        H580   1.083       .  S
C574       C1203   1.407   1_455  A
C574        C966   1.498       .  S
C575       C1202   1.407       .  A
C575        C576   1.407       .  A
C575        N582   1.438       .  S
C576       C1205   1.410       .  A
C576        H581   1.082       .  S
C577       C1204   1.410   1_455  A
C577        C578   1.411       .  A
C578        N579   1.436       .  S
N579        H583   1.045       .  S
N579        H584   1.046       .  S
N582        H585   1.045       .  S
N582        H586   1.047       .  S
C587        C588   1.407       .  A
C587        C592   1.415       .  A
C587        H594   1.083       .  S
C588        C589   1.422       .  A
C589       C1218   1.401       .  A
C589       N1224   1.434       .  S
C590       C1217   1.401       .  A
C590       C1219   1.396   1_455  A
C590        H595   1.084       .  S
C591       C1218   1.396       .  A
C591        C592   1.420       .  A
C592        N593   1.437       .  S
N593        H597   1.046       .  S
N593        H598   1.044       .  S
N596       C1217   1.434       .  S
N596        H599   1.045       .  S
N596        H600   1.046       .  S
C601        C602   1.407       .  A
C601        C606   1.416       .  A
C601        H608   1.083       .  S
C602       C1231   1.412       .  A
C602        C965   1.494       .  S
C603       C1230   1.412   1_455  A
C603        C604   1.397       .  A
C603        N610   1.439       .  S
C604       C1233   1.410   1_455  A
C604        H609   1.083       .  S
C605       C1232   1.410       .  A
C605        C606   1.418       .  A
C606        N607   1.437       .  S
N607        H611   1.045       .  S
N607        H612   1.046       .  S
N610        H613   1.044       .  S
N610        H614   1.045       .  S
C615        C616   1.410       .  A
C615        C620   1.416       .  A
C615        H622   1.083       .  S
C616       C1245   1.407   1_455  A
C617       C1244   1.407       .  A
C617        C618   1.407       .  A
C617        N624   1.438       .  S
C618       C1247   1.411       .  A
C618        H623   1.083       .  S
C619       C1246   1.411   1_455  A
C619        C620   1.409       .  A
C620        N621   1.436       .  S
N621        H625   1.046       .  S
N621        H626   1.045       .  S
N624        H627   1.046       .  S
N624        H628   1.045       .  S
N629        C634   1.355       .  A
N629        H661   1.038       .  S
N630        C951   1.353   1_554  A
N630        C638   1.355   1_655  A
N631        C635   1.354       .  A
N631        H662   1.036   1_655  S
N632        C953   1.355   1_554  A
N632        C640   1.353       .  A
C633        C641   1.389       .  A
C633        C649   1.422       .  A
C634        C650   1.417       .  A
C634        C642   1.386       .  A
C635        C643   1.387       .  A
C635        C652   1.417   1_655  A
C636        C651   1.420       .  A
C636        C644   1.389       .  A
C637        N944   1.353       .  A
C637        C649   1.420       .  A
C637        C645   1.386   1_655  A
C638        C652   1.420       .  A
C638        C646   1.386       .  A
C639        N946   1.355       .  A
C639        C647   1.386       .  A
C639        C650   1.420       .  A
C640        C648   1.386       .  A
C640        C651   1.420       .  A
C641        H653   1.082       .  S
C642        H654   1.082       .  S
C643        H655   1.082       .  S
C644        H656   1.082       .  S
C645        C960   1.382       .  A
C645        H657   1.082       .  S
C646        C959   1.382   1_554  A
C646        H658   1.082       .  S
C647        C962   1.381       .  A
C647        H659   1.082       .  S
C648        C961   1.381   1_554  A
C648        H660   1.082       .  S
C649        C905   1.498       .  S
C650        C930   1.500       .  S
O663        C671   1.261       .  A
O664        C665   1.262       .  A
O664       Cr681   1.991   1_655  S
C665        C863   1.473       .  S
C665        O666   1.259       .  A
O666       Cr682   1.987       .  S
O667        C668   1.268       .  A
O667       Cr682   2.043       .  S
C668        C902   1.502       .  S
O669       Cr683   1.976       .  S
O670        C671   1.270       .  A
O670       Cr683   2.008       .  S
C671        C846   1.463       .  S
O672        C680   1.262       .  A
O673        C674   1.258       .  A
O673       Cr681   1.966   1_655  S
C674        C832   1.458       .  S
C674        O675   1.266       .  A
O675       Cr682   1.999       .  S
O676       Cr682   2.004       .  S
C677        C891   1.494       .  S
C677        O678   1.273       .  A
O678       Cr683   2.013       .  S
O679        C680   1.255       .  A
O679       Cr683   1.978       .  S
C680        C877   1.489       .  S
Cr681       O684   1.772       .  S
Cr682       O684   1.771   1_655  S
N685        C690   1.348       .  A
N685        C689   1.354   1_545  A
N685        H717   1.041       .  S
N686        C693   1.346       .  A
N686        C694   1.346       .  A
N687        C692   1.353   1_565  A
N687        C691   1.349       .  A
N687        H718   1.042   1_565  S
N688        C695   1.350       .  A
N688        C696   1.351       .  A
C689        C697   1.387       .  A
C689        C705   1.412       .  A
C690        C706   1.411       .  A
C690        C698   1.387       .  A
C691        C699   1.385       .  A
C691        C708   1.410       .  A
C692        C707   1.416       .  A
C692        C700   1.389       .  A
C693        C705   1.404       .  A
C693        C701   1.385       .  A
C694        C708   1.405       .  A
C694        C702   1.387       .  A
C695        C703   1.387       .  A
C695        C706   1.414       .  A
C696        C704   1.386       .  A
C696        C707   1.415       .  A
C697        C698   1.375   1_565  A
C697        H709   1.082       .  S
C698        H710   1.082       .  S
C699        C700   1.375   1_565  A
C699        H711   1.083       .  S
C700        H712   1.082       .  S
C701        C702   1.379       .  A
C701        H713   1.082       .  S
C702        H714   1.082       .  S
C703        C704   1.381       .  A
C703        H715   1.082       .  S
C704        H716   1.082       .  S
C705        C804   1.482       .  S
C706        C874   1.488       .  S
C707        C860   1.496       .  S
C708        C818   1.480       .  S
O719        C727   1.275       .  A
O720        C721   1.241       .  A
O720       Cr737   1.972       .  S
C721        C821   1.457       .  S
C721        O722   1.242       .  A
O722       Cr738   1.980       .  S
O723        C724   1.265       .  A
O723       Cr738   2.007       .  S
C724        C919   1.500       .  S
O725       Cr739   1.980       .  S
O726        C727   1.300       .  A
O726       Cr739   2.073       .  S
C727        C779   1.463       .  S
O728        C736   1.241       .  A
O729        C730   1.275   1_455  A
O729       Cr737   1.923   1_455  S
C730        C793   1.451       .  S
C730        O731   1.296       .  A
O731       Cr738   2.059       .  S
O732       Cr738   1.972       .  S
C733        C933   1.493       .  S
C733        O734   1.270       .  A
O734       Cr739   2.026       .  S
O735        C736   1.246       .  A
O735       Cr739   1.999       .  S
C736        C807   1.480       .  S
Cr737       O740   1.744       .  S
Cr738       O740   1.750       .  S
N741        C746   1.354       .  A
N741        C745   1.350   1_545  A
N741        H773   1.035       .  S
N742       C1063   1.346       .  A
N742        C750   1.347   1_556  A
N743        C748   1.350       .  A
N743        C747   1.355   1_645  A
N743        H774   1.034       .  S
N744       C1065   1.349       .  A
N744        C752   1.348   1_556  A
C745        C753   1.385   1_655  A
C745        C761   1.413       .  A
C746        C762   1.420       .  A
C746        C754   1.389   1_655  A
C747        C755   1.387       .  A
C747        C764   1.418       .  A
C748        C763   1.417       .  A
C748        C756   1.387   1_655  A
C749       N1056   1.346       .  A
C749        C761   1.404       .  A
C749        C757   1.387       .  A
C750        C764   1.407   1_655  A
C750        C758   1.388       .  A
C751       N1058   1.349       .  A
C751        C759   1.386       .  A
C751        C762   1.411       .  A
C752        C760   1.387       .  A
C752        C763   1.410       .  A
C753        C754   1.379   1_565  A
C753        H765   1.082       .  S
C754        H766   1.082       .  S
C755        C756   1.380   1_565  A
C755        H767   1.082       .  S
C756        H768   1.082       .  S
C757       C1072   1.361       .  A
C757        H769   1.082       .  S
C758       C1071   1.361   1_554  A
C758        H770   1.081       .  S
C759       C1074   1.369       .  A
C759        H771   1.081       .  S
C760       C1073   1.369   1_554  A
C760        H772   1.082       .  S
C761        C790   1.471       .  S
C763        C835   1.480       .  S
C775        C780   1.392       .  A
C775        H782   1.084       .  S
C776        C777   1.410       .  A
C777        C778   1.408       .  A
C777        N784   1.437       .  S
C778        C779   1.403       .  A
C778        H783   1.083       .  S
C780        N781   1.434       .  S
N781        H785   1.046       .  S
N781        H786   1.045       .  S
N784        H787   1.047       .  S
N784        H788   1.044       .  S
C789        C790   1.399       .  A
C789        C794   1.398       .  A
C789        H796   1.084       .  S
C790        C791   1.405   1_655  A
C791        C792   1.395       .  A
C792        C793   1.402   1_455  A
C792        H797   1.085       .  S
C793        C794   1.406       .  A
C794        N795   1.431       .  S
N795        H799   1.045       .  S
N795        H800   1.046       .  S
N798        H801   1.045       .  S
N798        H802   1.046       .  S
C803        C804   1.405       .  A
C803        C808   1.404       .  A
C803        H810   1.084       .  S
C804        C805   1.409       .  A
C805        C806   1.393       .  A
C805        N812   1.434       .  S
C806        C807   1.407       .  A
C806        H811   1.084       .  S
C807        C808   1.414       .  A
C808        N809   1.432       .  S
N809        H813   1.043       .  S
N809        H814   1.047       .  S
N812        H815   1.044       .  S
N812        H816   1.046       .  S
C817        C818   1.403       .  A
C817        C822   1.402       .  A
C817        H824   1.084       .  S
C818        C819   1.410       .  A
C819        C820   1.396       .  A
C819        N826   1.433       .  S
C820        C821   1.397       .  A
C820        H825   1.084       .  S
C821        C822   1.407       .  A
C822        N823   1.433       .  S
N823        H827   1.043       .  S
N823        H828   1.047       .  S
N826        H829   1.047       .  S
N826        H830   1.044       .  S
C831        C832   1.402       .  A
C831        C836   1.404       .  A
C831        H838   1.084       .  S
C833        C834   1.401       .  A
C833        N840   1.438       .  S
C834        H839   1.084       .  S
C835        C836   1.409       .  A
C836        N837   1.438       .  S
N837        H841   1.044       .  S
N837        H842   1.047       .  S
N840        H843   1.046       .  S
N840        H844   1.044       .  S
C845        C850   1.399       .  A
C845        H852   1.085       .  S
C846        C847   1.408       .  A
C847        C848   1.405       .  A
C847        N854   1.438       .  S
C848        C849   1.404       .  A
C848        H853   1.084       .  S
C850        N851   1.439       .  S
N851        H855   1.046       .  S
N851        H856   1.043       .  S
N854        H857   1.046       .  S
N854        H858   1.045       .  S
C859        C860   1.404       .  A
C859        C864   1.402       .  A
C859        H866   1.084       .  S
C860        C861   1.410       .  A
C861        C862   1.410       .  A
C861        N868   1.431       .  S
C862        C863   1.404       .  A
C862        H867   1.084       .  S
C863        C864   1.410       .  A
C864        N865   1.438       .  S
N865        H869   1.046       .  S
N865        H870   1.045       .  S
N868        H871   1.045       .  S
N868        H872   1.046       .  S
C873        C874   1.396       .  A
C873        C878   1.399       .  A
C873        H880   1.084       .  S
C874        C875   1.420       .  A
C875        C876   1.403       .  A
C875        N882   1.438       .  S
C876        C877   1.404       .  A
C876        H881   1.084       .  S
C877        C878   1.420       .  A
C878        N879   1.433       .  S
N879        H883   1.044       .  S
N879        H884   1.048       .  S
N882        H885   1.044       .  S
N882        H886   1.046       .  S
C887        C888   1.409       .  A
C887        C892   1.415       .  A
C887        H894   1.083       .  S
C889        C890   1.407       .  A
C889        N896   1.438       .  S
C890        H895   1.082       .  S
C891        C892   1.411       .  A
C892        N893   1.436       .  S
N893        H897   1.045       .  S
N893        H898   1.046       .  S
N896        H899   1.045       .  S
N896        H900   1.047       .  S
C901        C902   1.407       .  A
C901        C906   1.415       .  A
C901        H908   1.083       .  S
C902        C903   1.422   1_655  A
C904        H909   1.084       .  S
C905        C906   1.420       .  A
C906        N907   1.437       .  S
N907        H911   1.046       .  S
N907        H912   1.044       .  S
N910        H913   1.045       .  S
N910        H914   1.046       .  S
C915        C916   1.407       .  A
C915        C920   1.416       .  A
C915        H922   1.083       .  S
C917        C918   1.397       .  A
C917        N924   1.439       .  S
C918        H923   1.083       .  S
C919        C920   1.418       .  A
C920        N921   1.437       .  S
N921        H925   1.045       .  S
N921        H926   1.046       .  S
N924        H927   1.044       .  S
N924        H928   1.045       .  S
C929        C930   1.410       .  A
C929        C934   1.416       .  A
C929        H936   1.083       .  S
C931        C932   1.407       .  A
C931        N938   1.438       .  S
C932        H937   1.083       .  S
C933        C934   1.409       .  A
C934        N935   1.436       .  S
N935        H939   1.046       .  S
N935        H940   1.045       .  S
N938        H941   1.046       .  S
N938        H942   1.045       .  S
N943        C948   1.355       .  A
N943        H975   1.038       .  S
N944        C952   1.355   1_655  A
N945        C949   1.354       .  A
N945        H976   1.036   1_655  S
N946        C954   1.353       .  A
C947        C955   1.389       .  A
C947        C963   1.422       .  A
C948        C964   1.417       .  A
C948        C956   1.386       .  A
C949        C957   1.387       .  A
C949        C966   1.417   1_655  A
C950        C965   1.420       .  A
C950        C958   1.389       .  A
C951        C963   1.420       .  A
C951        C959   1.386   1_655  A
C952        C966   1.420       .  A
C952        C960   1.386       .  A
C953        C961   1.386       .  A
C953        C964   1.420       .  A
C954        C962   1.386       .  A
C954        C965   1.420       .  A
C955        H967   1.082       .  S
C956        H968   1.082       .  S
C957        H969   1.082       .  S
C958        H970   1.082       .  S
C959        H971   1.082       .  S
C960        H972   1.082       .  S
C961        H973   1.082       .  S
C962        H974   1.082       .  S
C963       C1219   1.498       .  S
C964       C1244   1.500       .  S
O977        C985   1.261       .  A
O978        C979   1.262       .  A
O978       Cr995   1.991   1_655  S
C979       C1177   1.473       .  S
C979        O980   1.259       .  A
O980       Cr996   1.987       .  S
O981        C982   1.268       .  A
O981       Cr996   2.043       .  S
C982       C1216   1.502       .  S
O983       Cr997   1.976       .  S
O984        C985   1.270       .  A
O984       Cr997   2.008       .  S
C985       C1160   1.463       .  S
O986        C994   1.262       .  A
O987        C988   1.258       .  A
O987       Cr995   1.966   1_655  S
C988       C1146   1.458       .  S
C988        O989   1.266       .  A
O989       Cr996   1.999       .  S
O990       Cr996   2.004       .  S
C991       C1205   1.494       .  S
C991        O992   1.273       .  A
O992       Cr997   2.013       .  S
O993        C994   1.255       .  A
O993       Cr997   1.978       .  S
C994       C1191   1.489       .  S
Cr995       O998   1.772       .  S
Cr996       O998   1.771   1_655  S
N999       C1004   1.348       .  A
N999       C1003   1.354   1_545  A
N999       H1031   1.041       .  S
N1000      C1007   1.346       .  A
N1000      C1008   1.346       .  A
N1001      C1006   1.353   1_565  A
N1001      C1005   1.349       .  A
N1001      H1032   1.042   1_565  S
N1002      C1009   1.350       .  A
N1002      C1010   1.351       .  A
C1003      C1011   1.387       .  A
C1003      C1019   1.412       .  A
C1004      C1020   1.411       .  A
C1004      C1012   1.387       .  A
C1005      C1013   1.385       .  A
C1005      C1022   1.410       .  A
C1006      C1021   1.416       .  A
C1006      C1014   1.389       .  A
C1007      C1019   1.404       .  A
C1007      C1015   1.385       .  A
C1008      C1022   1.405       .  A
C1008      C1016   1.387       .  A
C1009      C1017   1.387       .  A
C1009      C1020   1.414       .  A
C1010      C1018   1.386       .  A
C1010      C1021   1.415       .  A
C1011      C1012   1.375   1_565  A
C1011      H1023   1.082       .  S
C1012      H1024   1.082       .  S
C1013      C1014   1.375   1_565  A
C1013      H1025   1.083       .  S
C1014      H1026   1.082       .  S
C1015      C1016   1.379       .  A
C1015      H1027   1.082       .  S
C1016      H1028   1.082       .  S
C1017      C1018   1.381       .  A
C1017      H1029   1.082       .  S
C1018      H1030   1.082       .  S
C1019      C1118   1.482       .  S
C1020      C1188   1.488       .  S
C1021      C1174   1.496       .  S
C1022      C1132   1.480       .  S
O1033      C1041   1.275       .  A
O1034      C1035   1.241       .  A
O1034     Cr1051   1.972       .  S
C1035      C1135   1.457       .  S
C1035      O1036   1.242       .  A
O1036     Cr1052   1.980       .  S
O1037      C1038   1.265       .  A
O1037     Cr1052   2.007       .  S
C1038      C1233   1.500       .  S
O1039     Cr1053   1.980       .  S
O1040      C1041   1.300       .  A
O1040     Cr1053   2.073       .  S
C1041      C1093   1.463       .  S
O1042      C1050   1.241       .  A
O1043      C1044   1.275   1_455  A
O1043     Cr1051   1.923   1_455  S
C1044      C1107   1.451       .  S
C1044      O1045   1.296       .  A
O1045     Cr1052   2.059       .  S
O1046     Cr1052   1.972       .  S
C1047      C1247   1.493       .  S
C1047      O1048   1.270       .  A
O1048     Cr1053   2.026       .  S
O1049      C1050   1.246       .  A
O1049     Cr1053   1.999       .  S
C1050      C1121   1.480       .  S
Cr1051     O1054   1.744       .  S
Cr1052     O1054   1.750       .  S
N1055      C1060   1.354       .  A
N1055      C1059   1.350   1_545  A
N1055      H1087   1.035       .  S
N1056      C1064   1.347       .  A
N1057      C1062   1.350       .  A
N1057      C1061   1.355   1_645  A
N1057      H1088   1.034       .  S
N1058      C1066   1.348       .  A
C1059      C1067   1.385   1_655  A
C1059      C1075   1.413       .  A
C1060      C1076   1.420       .  A
C1060      C1068   1.389   1_655  A
C1061      C1069   1.387       .  A
C1061      C1078   1.418       .  A
C1062      C1077   1.417       .  A
C1062      C1070   1.387   1_655  A
C1063      C1075   1.404       .  A
C1063      C1071   1.387       .  A
C1064      C1078   1.407   1_655  A
C1064      C1072   1.388       .  A
C1065      C1073   1.386       .  A
C1065      C1076   1.411       .  A
C1066      C1074   1.387       .  A
C1066      C1077   1.410       .  A
C1067      C1068   1.379   1_565  A
C1067      H1079   1.082       .  S
C1068      H1080   1.082       .  S
C1069      C1070   1.380   1_565  A
C1069      H1081   1.082       .  S
C1070      H1082   1.082       .  S
C1071      H1083   1.082       .  S
C1072      H1084   1.081       .  S
C1073      H1085   1.081       .  S
C1074      H1086   1.082       .  S
C1075      C1104   1.471       .  S
C1077      C1149   1.480       .  S
C1089      C1094   1.392       .  A
C1089      H1096   1.084       .  S
C1090      C1091   1.410       .  A
C1091      C1092   1.408       .  A
C1091      N1098   1.437       .  S
C1092      C1093   1.403       .  A
C1092      H1097   1.083       .  S
C1094      N1095   1.434       .  S
N1095      H1099   1.046       .  S
N1095      H1100   1.045       .  S
N1098      H1101   1.047       .  S
N1098      H1102   1.044       .  S
C1103      C1104   1.399       .  A
C1103      C1108   1.398       .  A
C1103      H1110   1.084       .  S
C1104      C1105   1.405   1_655  A
C1105      C1106   1.395       .  A
C1106      C1107   1.402   1_455  A
C1106      H1111   1.085       .  S
C1107      C1108   1.406       .  A
C1108      N1109   1.431       .  S
N1109      H1113   1.045       .  S
N1109      H1114   1.046       .  S
N1112      H1115   1.045       .  S
N1112      H1116   1.046       .  S
C1117      C1118   1.405       .  A
C1117      C1122   1.404       .  A
C1117      H1124   1.084       .  S
C1118      C1119   1.409       .  A
C1119      C1120   1.393       .  A
C1119      N1126   1.434       .  S
C1120      C1121   1.407       .  A
C1120      H1125   1.084       .  S
C1121      C1122   1.414       .  A
C1122      N1123   1.432       .  S
N1123      H1127   1.043       .  S
N1123      H1128   1.047       .  S
N1126      H1129   1.044       .  S
N1126      H1130   1.046       .  S
C1131      C1132   1.403       .  A
C1131      C1136   1.402       .  A
C1131      H1138   1.084       .  S
C1132      C1133   1.410       .  A
C1133      C1134   1.396       .  A
C1133      N1140   1.433       .  S
C1134      C1135   1.397       .  A
C1134      H1139   1.084       .  S
C1135      C1136   1.407       .  A
C1136      N1137   1.433       .  S
N1137      H1141   1.043       .  S
N1137      H1142   1.047       .  S
N1140      H1143   1.047       .  S
N1140      H1144   1.044       .  S
C1145      C1146   1.402       .  A
C1145      C1150   1.404       .  A
C1145      H1152   1.084       .  S
C1147      C1148   1.401       .  A
C1147      N1154   1.438       .  S
C1148      H1153   1.084       .  S
C1149      C1150   1.409       .  A
C1150      N1151   1.438       .  S
N1151      H1155   1.044       .  S
N1151      H1156   1.047       .  S
N1154      H1157   1.046       .  S
N1154      H1158   1.044       .  S
C1159      C1164   1.399       .  A
C1159      H1166   1.085       .  S
C1160      C1161   1.408       .  A
C1161      C1162   1.405       .  A
C1161      N1168   1.438       .  S
C1162      C1163   1.404       .  A
C1162      H1167   1.084       .  S
C1164      N1165   1.439       .  S
N1165      H1169   1.046       .  S
N1165      H1170   1.043       .  S
N1168      H1171   1.046       .  S
N1168      H1172   1.045       .  S
C1173      C1174   1.404       .  A
C1173      C1178   1.402       .  A
C1173      H1180   1.084       .  S
C1174      C1175   1.410       .  A
C1175      C1176   1.410       .  A
C1175      N1182   1.431       .  S
C1176      C1177   1.404       .  A
C1176      H1181   1.084       .  S
C1177      C1178   1.410       .  A
C1178      N1179   1.438       .  S
N1179      H1183   1.046       .  S
N1179      H1184   1.045       .  S
N1182      H1185   1.045       .  S
N1182      H1186   1.046       .  S
C1187      C1188   1.396       .  A
C1187      C1192   1.399       .  A
C1187      H1194   1.084       .  S
C1188      C1189   1.420       .  A
C1189      C1190   1.403       .  A
C1189      N1196   1.438       .  S
C1190      C1191   1.404       .  A
C1190      H1195   1.084       .  S
C1191      C1192   1.420       .  A
C1192      N1193   1.433       .  S
N1193      H1197   1.044       .  S
N1193      H1198   1.048       .  S
N1196      H1199   1.044       .  S
N1196      H1200   1.046       .  S
C1201      C1202   1.409       .  A
C1201      C1206   1.415       .  A
C1201      H1208   1.083       .  S
C1203      C1204   1.407       .  A
C1203      N1210   1.438       .  S
C1204      H1209   1.082       .  S
C1205      C1206   1.411       .  A
C1206      N1207   1.436       .  S
N1207      H1211   1.045       .  S
N1207      H1212   1.046       .  S
N1210      H1213   1.045       .  S
N1210      H1214   1.047       .  S
C1215      C1216   1.407       .  A
C1215      C1220   1.415       .  A
C1215      H1222   1.083       .  S
C1216      C1217   1.422   1_655  A
C1218      H1223   1.084       .  S
C1219      C1220   1.420       .  A
C1220      N1221   1.437       .  S
N1221      H1225   1.046       .  S
N1221      H1226   1.044       .  S
N1224      H1227   1.045       .  S
N1224      H1228   1.046       .  S
C1229      C1230   1.407       .  A
C1229      C1234   1.416       .  A
C1229      H1236   1.083       .  S
C1231      C1232   1.397       .  A
C1231      N1238   1.439       .  S
C1232      H1237   1.083       .  S
C1233      C1234   1.418       .  A
C1234      N1235   1.437       .  S
N1235      H1239   1.045       .  S
N1235      H1240   1.046       .  S
N1238      H1241   1.044       .  S
N1238      H1242   1.045       .  S
C1243      C1244   1.410       .  A
C1243      C1248   1.416       .  A
C1243      H1250   1.083       .  S
C1245      C1246   1.407       .  A
C1245      N1252   1.438       .  S
C1246      H1251   1.083       .  S
C1247      C1248   1.409       .  A
C1248      N1249   1.436       .  S
N1249      H1253   1.046       .  S
N1249      H1254   1.045       .  S
N1252      H1255   1.046       .  S
N1252      H1256   1.045       .  S
