geometry optimzed in LAMMPS
_audit_creation_date              2020-12-01 
_audit_creation_method            'lammps2cif' 
_symmetry_space_group_name_H-M    'P1' 
_symmetry_Int_Tables_number       1 
_symmetry_cell_setting            triclinic 
loop_ 
_symmetry_equiv_pos_as_xyz 
  x,y,z 
_cell_length_a                    66.16517453 
_cell_length_b                    66.27705140750317 
_cell_length_c                    66.33832266886411 
_cell_angle_alpha                 89.6911913279072 
_cell_angle_beta                  89.96736755121171 
_cell_angle_gamma                 89.80117362288237 
loop_ 
_atom_site_label 
_atom_site_type_symbol 
_atom_site_fract_x 
_atom_site_fract_y 
_atom_site_fract_z 
_atom_site_charge 
Zn1        Zn  0.00066177  0.65880025  0.83134394     1.49700
Zn2        Zn  0.02341325  0.61717680  0.81844110     1.49400
Zn3        Zn  0.97901226  0.61532612  0.82691210     1.49100
Zn4        Zn  0.99498548  0.63969816  0.78814285     1.49500
O5          O  0.99934851  0.63321710  0.81621694    -1.82900
O6          O  0.02655481  0.65779617  0.84798508    -0.73500
O7          O  0.01916826  0.58625154  0.81975936    -0.73300
O8          O  0.96938274  0.62602426  0.85327292    -0.72800
O9          O  0.03771920  0.62639752  0.84279993    -0.73500
O10         O  0.97803540  0.65851724  0.85283722    -0.73100
O11         O  0.98715563  0.58515237  0.82897083    -0.73700
O12         O  0.96784821  0.62963018  0.77975546    -0.73100
O13         O  0.04081338  0.62356979  0.79493315    -0.73800
O14         O  0.95563806  0.61695369  0.80840293    -0.73200
O15         O  0.01832193  0.63038884  0.77089636    -0.73700
O16         O  0.99415414  0.66947891  0.78323130    -0.73600
O17         O  0.99958594  0.68472350  0.81232598    -0.73400
C18         C  0.03844098  0.64310169  0.85217022     0.78400
C19         C  0.00363834  0.57599314  0.82476460     0.78900
C20         C  0.96860571  0.64364344  0.86087796     0.77900
C21         C  0.95340047  0.62216840  0.79005801     0.78200
C22         C  0.03645616  0.62717472  0.77659200     0.79400
C23         C  0.99638704  0.68560164  0.79324263     0.78400
Zn24       Zn  0.00283899  0.37881780  0.83981228     1.49700
Zn25       Zn  0.98100922  0.34567765  0.81245848     1.49400
Zn26       Zn  0.00599757  0.38287069  0.79330884     1.49100
Zn27       Zn  0.02666638  0.34525325  0.81516044     1.49500
O28         O  0.00388664  0.36358798  0.81511885    -1.82900
O29         O  0.97793120  0.37035025  0.85494829    -0.73500
O30         O  0.96293403  0.35788439  0.79213842    -0.73300
O31         O  0.00367788  0.41247341  0.80261345    -0.72800
O32         O  0.96562356  0.34354627  0.83893676    -0.73500
O33         O  0.00272140  0.40990814  0.83584711    -0.73100
O34         O  0.98331958  0.37747465  0.77383088    -0.73700
O35         O  0.04960187  0.35905062  0.80175727    -0.73100
O36         O  0.98806295  0.31854287  0.79952405    -0.73800
O37         O  0.03381529  0.38056529  0.78109828    -0.73200
O38         O  0.02143559  0.31924863  0.79941074    -0.73700
O39         O  0.03618746  0.34066671  0.84343939    -0.73600
O40         O  0.02676004  0.37019678  0.85655024    -0.73400
C41         C  0.96535723  0.35584679  0.85370193     0.78400
C42         C  0.96638157  0.36866711  0.77661463     0.78900
C43         C  0.00298603  0.42084210  0.81990757     0.77900
C44         C  0.04988302  0.37211168  0.78769976     0.78200
C45         C  0.00492663  0.31084196  0.79422357     0.79400
C46         C  0.03738362  0.35407146  0.85710166     0.78400
Zn47       Zn  0.14082481  0.50843783  0.70873832     1.49700
Zn48       Zn  0.16130035  0.49893255  0.66598345     1.49400
Zn49       Zn  0.11898038  0.47898283  0.67862643     1.49100
Zn50       Zn  0.11861717  0.52317238  0.66913814     1.49500
O51         O  0.13545800  0.50254194  0.68070235    -1.82900
O52         O  0.17053257  0.50834542  0.71373639    -0.73500
O53         O  0.16048106  0.47221647  0.65073689    -0.73300
O54         O  0.12411397  0.46295143  0.70317931    -0.72800
O55         O  0.18647142  0.50005566  0.68549428    -0.73500
O56         O  0.13078257  0.48565134  0.72689938    -0.73100
O57         O  0.12855854  0.46275586  0.65527425    -0.73700
O58         O  0.08825826  0.51625722  0.66716858    -0.73100
O59         O  0.16213154  0.51989663  0.64295232    -0.73800
O60         O  0.08831224  0.48418538  0.67620391    -0.73200
O61         O  0.12987840  0.52978508  0.64240408    -0.73700
O62         O  0.12096157  0.54798240  0.68557902    -0.73600
O63         O  0.13144078  0.53684264  0.71546389    -0.73400
C64         C  0.18681071  0.50450769  0.70429427     0.78400
C65         C  0.14559393  0.46075152  0.64652251     0.78900
C66         C  0.12746944  0.46749169  0.72147177     0.77900
C67         C  0.07858860  0.50004282  0.67099233     0.78200
C68         C  0.14734963  0.52908901  0.63439404     0.79400
C69         C  0.12527366  0.55112127  0.70395688     0.78400
Zn70       Zn  0.88349647  0.52110516  0.67529880     1.49700
Zn71       Zn  0.88214555  0.47713291  0.66642590     1.49400
Zn72       Zn  0.86178943  0.49347272  0.70711402     1.49100
Zn73       Zn  0.83985696  0.50273303  0.66552005     1.49500
O74         O  0.86627419  0.49829210  0.67859788    -1.82900
O75         O  0.91381874  0.51455247  0.67303448    -0.73500
O76         O  0.88178456  0.45408007  0.68513750    -0.73300
O77         O  0.87219557  0.51664350  0.72371842    -0.72800
O78         O  0.91275884  0.48319486  0.66213443    -0.73500
O79         O  0.87916897  0.53816581  0.69888245    -0.73100
O80         O  0.87224507  0.46594994  0.71495680    -0.73700
O81         O  0.81563757  0.50301382  0.68640760    -0.73100
O82         O  0.86749378  0.46738048  0.64211402    -0.73800
O83         O  0.83241232  0.49418165  0.71399722    -0.73200
O84         O  0.83638477  0.48065356  0.64446334    -0.73700
O85         O  0.84154276  0.52885526  0.64900736    -0.73600
O86         O  0.87400050  0.53724785  0.65186184    -0.73400
C87         C  0.92302055  0.49873495  0.66700428     0.78400
C88         C  0.87856170  0.45158835  0.70384992     0.78900
C89         C  0.87570782  0.53447463  0.71735411     0.77900
C90         C  0.81591749  0.49893108  0.70534728     0.78200
C91         C  0.84917236  0.46873720  0.63625566     0.79400
C92         C  0.85664607  0.53975746  0.64390110     0.78400
Zn93       Zn  0.63652228  0.00492078  0.79167594     1.49700
Zn94       Zn  0.61465180  0.02840174  0.82742293     1.49400
Zn95       Zn  0.61395500  0.98368042  0.82870413     1.49100
Zn96       Zn  0.65756202  0.00425934  0.83425549     1.49500
O97         O  0.63111532  0.00545934  0.82040959    -1.82900
O98         O  0.62489808  0.02940854  0.77822248    -0.73500
O99         O  0.58387110  0.02307567  0.83158899    -0.73300
O100        O  0.61657385  0.96288016  0.80808737    -0.72800
O101        O  0.61685125  0.04783186  0.80504020    -0.73500
O102        O  0.62715132  0.97858246  0.78028088    -0.73100
O103        O  0.58345179  0.98985782  0.83159326    -0.73700
O104        O  0.65745319  0.98060284  0.85439951    -0.73100
O105        O  0.62765320  0.04189581  0.85065525    -0.73800
O106        O  0.62492993  0.97203555  0.85393628    -0.73200
O107        O  0.65898608  0.02914094  0.85203186    -0.73700
O108        O  0.68246609  0.00355067  0.81415732    -0.73600
O109        O  0.66615161  0.00661352  0.78514281    -0.73400
C110        C  0.61999826  0.04614591  0.78624546     0.78400
C111        C  0.57391308  0.00659825  0.83233592     0.78900
C112        C  0.62102539  0.96280098  0.78947201     0.77900
C113        C  0.64247282  0.97081928  0.86171821     0.78200
C114        C  0.64555799  0.04179828  0.85775897     0.79400
C115        C  0.68264822  0.00554431  0.79490220     0.78400
Zn116      Zn  0.37904601  0.97763156  0.82739998     1.49700
Zn117      Zn  0.33497067  0.99934046  0.83348726     1.49400
Zn118      Zn  0.37699160  0.02237065  0.82268761     1.49100
Zn119      Zn  0.35433497  0.99528247  0.79016246     1.49500
O120        O  0.36088336  0.99863791  0.81839544    -1.82900
O121        O  0.36893124  0.96777604  0.85402580    -0.73500
O122        O  0.33482927  0.02477508  0.85069115    -0.73300
O123        O  0.40777716  0.01843542  0.82664745    -0.72800
O124        O  0.33619136  0.97629354  0.85406596    -0.73500
O125        O  0.40949297  0.98521240  0.82810073    -0.73100
O126        O  0.36530936  0.03802787  0.84502815    -0.73700
O127        O  0.36453201  0.01897157  0.77373635    -0.73100
O128        O  0.30869217  0.99866416  0.81478658    -0.73800
O129        O  0.37337331  0.03924809  0.79882558    -0.73200
O130        O  0.32462001  0.99622756  0.78568049    -0.73700
O131        O  0.36289145  0.96754478  0.78078328    -0.73600
O132        O  0.37655994  0.95462946  0.80867801    -0.73400
C133        C  0.35125985  0.96677437  0.86170598     0.78400
C134        C  0.34836809  0.03802742  0.85408098     0.78900
C135        C  0.41831458  0.00232376  0.82783557     0.77900
C136        C  0.36943985  0.03632000  0.78035709     0.78200
C137        C  0.30818724  0.99744533  0.79548125     0.79400
C138        C  0.37056502  0.95277576  0.79058116     0.78400
Zn139      Zn  0.52136594  0.11948808  0.67045289     1.49700
Zn140      Zn  0.49849979  0.16159377  0.66198510     1.49400
Zn141      Zn  0.47724916  0.11791374  0.66693523     1.49100
Zn142      Zn  0.49602289  0.14080811  0.70466603     1.49500
O143        O  0.49808614  0.13553826  0.67624929    -1.82900
O144        O  0.53234221  0.12901047  0.64432192    -0.73500
O145        O  0.47413361  0.16202590  0.64308584    -0.73300
O146        O  0.48454084  0.08789332  0.66372276    -0.72800
O147        O  0.52245236  0.16115520  0.64231177    -0.73500
O148        O  0.51708054  0.08856726  0.67058830    -0.73100
O149        O  0.46536758  0.12958923  0.64219971    -0.73700
O150        O  0.47126953  0.12703736  0.71586833    -0.73100
O151        O  0.49818806  0.18669488  0.68193155    -0.73800
O152        O  0.45600541  0.11821849  0.68735558    -0.73200
O153        O  0.49236470  0.17042595  0.71065670    -0.73700
O154        O  0.52253861  0.13342000  0.71775060    -0.73600
O155        O  0.54150510  0.12558160  0.69115232    -0.73400
C156        C  0.53281467  0.14621920  0.63569368     0.78400
C157        C  0.46396950  0.14755579  0.63545141     0.78900
C158        C  0.50108096  0.07852410  0.66700291     0.77900
C159        C  0.45580510  0.12073473  0.70629619     0.78200
C160        C  0.49448805  0.18690493  0.70095877     0.79400
C161        C  0.53969335  0.12965199  0.70975060     0.78400
Zn162      Zn  0.47621998  0.88313901  0.67099314     1.49700
Zn163      Zn  0.50214599  0.84079635  0.66613585     1.49400
Zn164      Zn  0.52083337  0.88386772  0.67648300     1.49100
Zn165      Zn  0.49403914  0.86024822  0.70925907     1.49500
O166        O  0.49807713  0.86647153  0.68083177    -1.82900
O167        O  0.46780407  0.87149392  0.64480214    -0.73500
O168        O  0.52924941  0.84172058  0.65090387    -0.73300
O169        O  0.51526222  0.91402553  0.67271944    -0.72800
O170        O  0.48084732  0.84035539  0.64364734    -0.73500
O171        O  0.48217799  0.91386294  0.66898441    -0.73100
O172        O  0.53753939  0.87400420  0.65397648    -0.73700
O173        O  0.51774110  0.87071675  0.72551183    -0.73100
O174        O  0.50033802  0.81516214  0.68539539    -0.73800
O175        O  0.53749278  0.88117876  0.70034326    -0.73200
O176        O  0.49352625  0.83036170  0.71434215    -0.73700
O177        O  0.46635912  0.86954696  0.71829916    -0.73600
O178        O  0.45278635  0.88031182  0.68949627    -0.73400
C179        C  0.46947084  0.85428965  0.63639409     0.78400
C180        C  0.54045435  0.85674373  0.64625391     0.78900
C181        C  0.49874725  0.92361069  0.67020470     0.77900
C182        C  0.53474042  0.87684701  0.71877907     0.78200
C183        C  0.49625602  0.81428595  0.70431021     0.79400
C184        C  0.45120580  0.87571320  0.70805005     0.78400
Zn185      Zn  0.34047878  0.81552956  0.97661049     1.49700
Zn186      Zn  0.37912873  0.79418229  0.99757381     1.49400
Zn187      Zn  0.37533252  0.84069618  0.00008163     1.49100
Zn188      Zn  0.34122988  0.81414683  0.02226408     1.49500
O189        O  0.35944225  0.81597998  0.99911977    -1.82900
O190        O  0.35259042  0.79920760  0.95462710    -0.73500
O191        O  0.40925356  0.80378878  0.99664378    -0.73300
O192        O  0.36489288  0.85893401  0.97798378    -0.72800
O193        O  0.37407728  0.77934099  0.97151126    -0.73500
O194        O  0.33726880  0.84394245  0.96585153    -0.73100
O195        O  0.40690488  0.83699580  0.99881373    -0.73700
O196        O  0.34034714  0.84077048  0.03739116    -0.73100
O197        O  0.37560346  0.77672908  0.02264333    -0.73800
O198        O  0.36801534  0.85555466  0.02526549    -0.73200
O199        O  0.35328183  0.79428421  0.04071352    -0.73700
O200        O  0.31325708  0.80189225  0.01632862    -0.73600
O201        O  0.31347246  0.80112802  0.98308840    -0.73400
C202        C  0.36466807  0.78426195  0.95538193     0.78400
C203        C  0.41782660  0.82106013  0.99743726     0.78900
C204        C  0.34920861  0.85903206  0.96674851     0.77900
C205        C  0.35321221  0.85511618  0.03756324     0.78200
C206        C  0.36582597  0.77986537  0.03898990     0.79400
C207        C  0.30504075  0.79653463  0.99981262     0.78400
Zn208      Zn  0.61396204  0.79425520  0.99519030     1.49700
Zn209      Zn  0.65239395  0.81434159  0.01770683     1.49400
Zn210      Zn  0.65181139  0.81571610  0.97231743     1.49100
Zn211      Zn  0.61710152  0.84095359  0.99661253     1.49500
O212        O  0.63340635  0.81619791  0.99535922    -1.82900
O213        O  0.61880802  0.77705639  0.01990881    -0.73500
O214        O  0.68012682  0.80162724  0.01102121    -0.73300
O215        O  0.63990674  0.79758007  0.95189378    -0.72800
O216        O  0.64085553  0.79542597  0.03736275    -0.73500
O217        O  0.61827922  0.77865855  0.96955075    -0.73100
O218        O  0.68004389  0.80290726  0.97783167    -0.73700
O219        O  0.62604308  0.85895743  0.97385142    -0.73100
O220        O  0.65412430  0.84127073  0.03163205    -0.73800
O221        O  0.65319684  0.84394286  0.96056141    -0.73200
O222        O  0.62593282  0.85663000  0.02105960    -0.73700
O223        O  0.58542865  0.83690447  0.99646267    -0.73600
O224        O  0.58374712  0.80361495  0.99601816    -0.73400
C225        C  0.62867557  0.78075162  0.03599483     0.78400
C226        C  0.68861196  0.79751025  0.99425366     0.78900
C227        C  0.62787458  0.78271963  0.95331836     0.77900
C228        C  0.64126336  0.85907855  0.96200354     0.78200
C229        C  0.64156288  0.85592869  0.03233219     0.79400
C230        C  0.57478488  0.82076521  0.99641132     0.78400
Zn231      Zn  0.49612803  0.70304298  0.11436351     1.49700
Zn232      Zn  0.47573968  0.68437181  0.15442852     1.49400
Zn233      Zn  0.49898928  0.65650164  0.12131215     1.49100
Zn234      Zn  0.52138971  0.68530872  0.15247179     1.49500
O235        O  0.49786915  0.68232606  0.13524128    -1.82900
O236        O  0.47035122  0.71906833  0.11829106    -0.73500
O237        O  0.46316451  0.65699335  0.15801311    -0.73300
O238        O  0.49773438  0.65842674  0.08972586    -0.72800
O239        O  0.45439910  0.70149111  0.14218457    -0.73500
O240        O  0.49515002  0.69143475  0.08546502    -0.73100
O241        O  0.47606897  0.63965181  0.13216501    -0.73700
O242        O  0.53644326  0.65912792  0.15599289    -0.73100
O243        O  0.48306728  0.69867478  0.18103356    -0.73800
O244        O  0.52443392  0.64206358  0.12984679    -0.73200
O245        O  0.51633181  0.69976805  0.17899295    -0.73700
O246        O  0.53995873  0.70287293  0.13803555    -0.73600
O247        O  0.52143540  0.71987068  0.11554639    -0.73400
C248        C  0.45459122  0.71519450  0.12873137     0.78400
C249        C  0.46383529  0.64127282  0.14697431     0.78900
C250        C  0.49615284  0.67373529  0.07795212     0.77900
C251        C  0.53694420  0.64389732  0.14434847     0.78200
C252        C  0.50004012  0.70439687  0.18810972     0.79400
C253        C  0.53817167  0.71630060  0.12447298     0.78400
Zn254      Zn  0.49674887  0.70937546  0.86028050     1.49700
Zn255      Zn  0.49611059  0.66738087  0.83877058     1.49400
Zn256      Zn  0.51813297  0.67183981  0.88219867     1.49100
Zn257      Zn  0.47348133  0.67379489  0.88191275     1.49500
O258        O  0.49614047  0.68074964  0.86537027    -1.82900
O259        O  0.49661318  0.71594929  0.83079159    -0.73500
O260        O  0.51983616  0.64779487  0.83824629    -0.73300
O261        O  0.53965085  0.69220946  0.87842201    -0.72800
O262        O  0.49632867  0.68751417  0.81365017    -0.73500
O263        O  0.52320147  0.72043669  0.86992134    -0.73100
O264        O  0.52857974  0.64602964  0.87072984    -0.73700
O265        O  0.47887534  0.67087636  0.91265535    -0.73100
O266        O  0.47171044  0.64881946  0.83823232    -0.73800
O267        O  0.51213171  0.66910591  0.91305299    -0.73200
O268        O  0.46114539  0.64935251  0.87027028    -0.73700
O269        O  0.45327352  0.69526416  0.87821456    -0.73600
O270        O  0.47114076  0.72257450  0.87035539    -0.73400
C271        C  0.49640403  0.70687293  0.81397024     0.78400
C272        C  0.52963108  0.63947784  0.85269418     0.78900
C273        C  0.53946163  0.71100964  0.87441238     0.77900
C274        C  0.49533719  0.66928929  0.92260268     0.78200
C275        C  0.46042871  0.64225859  0.85246387     0.79400
C276        C  0.45437751  0.71405571  0.87458511     0.78400
Zn277      Zn  0.81872549  0.65672383  0.02258637     1.49700
Zn278      Zn  0.79828238  0.61823954  0.99983956     1.49400
Zn279      Zn  0.82078538  0.65348374  0.97735567     1.49100
Zn280      Zn  0.84518984  0.62059300  0.00362617     1.49500
O281        O  0.82073571  0.63678079  0.00109343    -1.82900
O282        O  0.79895819  0.64579164  0.04213422    -0.73500
O283        O  0.78293486  0.62288782  0.97379606    -0.73300
O284        O  0.80489340  0.68006661  0.98066803    -0.72800
O285        O  0.78181218  0.62253333  0.02501968    -0.73500
O286        O  0.80637597  0.68424887  0.01366491    -0.73100
O287        O  0.80637404  0.63904048  0.95589042    -0.73700
O288        O  0.86466413  0.62995979  0.98185403    -0.73100
O289        O  0.80709222  0.58818481  0.99934374    -0.73800
O290        O  0.84940930  0.65668541  0.96790504    -0.73200
O291        O  0.84037944  0.58927668  0.00231062    -0.73700
O292        O  0.85851240  0.62818633  0.02983780    -0.73600
O293        O  0.84528325  0.65799979  0.03815427    -0.73400
C294        C  0.78489090  0.63283656  0.04095529     0.78400
C295        C  0.79005726  0.62907377  0.95696547     0.78900
C296        C  0.80043697  0.69029809  0.99630607     0.77900
C297        C  0.86473959  0.64506546  0.96976673     0.78200
C298        C  0.82409652  0.57901972  0.00045984     0.79400
C299        C  0.85834827  0.64394771  0.04084095     0.78400
Zn300      Zn  0.81834754  0.34695782  0.02230067     1.49700
Zn301      Zn  0.84351325  0.38108810  0.99814936     1.49400
Zn302      Zn  0.81720978  0.34641418  0.97637714     1.49100
Zn303      Zn  0.79649167  0.38389974  0.99923947     1.49500
O304        O  0.81888796  0.36499175  0.99901208    -1.82900
O305        O  0.84638348  0.34512665  0.03459965    -0.73500
O306        O  0.85971038  0.37195796  0.97394044    -0.73300
O307        O  0.80458572  0.31909374  0.98353666    -0.72800
O308        O  0.86060921  0.37314107  0.02230194    -0.73500
O309        O  0.80513468  0.31951108  0.01678954    -0.73100
O310        O  0.84420688  0.34447209  0.96245995    -0.73700
O311        O  0.77985659  0.37932067  0.97435998    -0.73100
O312        O  0.83864764  0.41247488  0.99726637    -0.73800
O313        O  0.79808878  0.35763014  0.95632617    -0.73200
O314        O  0.80528952  0.41390741  0.99909373    -0.73700
O315        O  0.78019345  0.37920939  0.02439507    -0.73600
O316        O  0.79986885  0.35879342  0.04263210    -0.73400
C317        C  0.86082867  0.35787935  0.03417534     0.78400
C318        C  0.85899161  0.35680235  0.96213487     0.78900
C319        C  0.79990459  0.31103893  0.00039060     0.77900
C320        C  0.78318780  0.36960385  0.95812648     0.78200
C321        C  0.82231918  0.42291986  0.99807301     0.79400
C322        C  0.78442412  0.37013054  0.04088357     0.78400
Zn323      Zn  0.66954458  0.50320701  0.15763802     1.49700
Zn324      Zn  0.68041872  0.52426893  0.11466968     1.49400
Zn325      Zn  0.71361784  0.49934363  0.13933531     1.49100
Zn326      Zn  0.67620402  0.47984247  0.11527812     1.49500
O327        O  0.68510946  0.50159686  0.13218034    -1.82900
O328        O  0.65294990  0.52919311  0.15667667    -0.73500
O329        O  0.70301698  0.54270336  0.11871216    -0.73300
O330        O  0.71770501  0.49741437  0.16934712    -0.72800
O331        O  0.65644870  0.53901562  0.12466445    -0.73500
O332        O  0.68780512  0.50204660  0.18367968    -0.73100
O333        O  0.72880807  0.52482993  0.13099764    -0.73700
O334        O  0.69606598  0.45792511  0.11920574    -0.73100
O335        O  0.67780668  0.51862305  0.08412428    -0.73800
O336        O  0.72447975  0.47278372  0.12926996    -0.73200
O337        O  0.67384333  0.48565479  0.08452345    -0.73700
O338        O  0.65001496  0.46978357  0.12588962    -0.73600
O339        O  0.64858793  0.48035250  0.15775787    -0.73400
C340        C  0.64810612  0.54066878  0.14187515     0.78400
C341        C  0.72120684  0.54143234  0.12466298     0.78900
C342        C  0.70689713  0.49901110  0.18511307     0.77900
C343        C  0.71471751  0.45714854  0.12381423     0.78200
C344        C  0.67502395  0.50217967  0.07461009     0.79400
C345        C  0.64169520  0.46980160  0.14321152     0.78400
Zn346      Zn  0.70997672  0.49995213  0.85818325     1.49700
Zn347      Zn  0.66688518  0.50284842  0.83658009     1.49400
Zn348      Zn  0.67197646  0.48079085  0.87968740     1.49100
Zn349      Zn  0.67551381  0.52642041  0.87874541     1.49500
O350        O  0.68109138  0.50267167  0.86284728    -1.82900
O351        O  0.71602396  0.49873621  0.82870253    -0.73500
O352        O  0.64851077  0.47783842  0.83564747    -0.73300
O353        O  0.69214373  0.45890150  0.87826234    -0.72800
O354        O  0.68720194  0.50284660  0.81206463    -0.73500
O355        O  0.72082734  0.47360596  0.86917130    -0.73100
O356        O  0.64704309  0.46873361  0.86800221    -0.73700
O357        O  0.67130399  0.52093814  0.90943018    -0.73100
O358        O  0.64782482  0.52741152  0.83581353    -0.73800
O359        O  0.66933579  0.48765742  0.90978082    -0.73200
O360        O  0.65182660  0.54055403  0.86643206    -0.73700
O361        O  0.69906172  0.54490933  0.87591731    -0.73600
O362        O  0.72470170  0.52453852  0.86804644    -0.73400
C363        C  0.70642483  0.50026661  0.81217307     0.78400
C364        C  0.64102574  0.46700838  0.84983444     0.78900
C365        C  0.71099773  0.45808023  0.87486490     0.77900
C366        C  0.66965180  0.50436699  0.91925122     0.78200
C367        C  0.64303442  0.54029193  0.84932870     0.79400
C368        C  0.71779699  0.54187630  0.87273160     0.78400
Zn369      Zn  0.97528170  0.82453017  0.61692518     1.49700
Zn370      Zn  0.99756291  0.83161903  0.65919344     1.49400
Zn371      Zn  0.99331079  0.78725566  0.64263155     1.49100
Zn372      Zn  0.02007090  0.81813305  0.61770086     1.49500
O373        O  0.99658030  0.81532234  0.63453344    -1.82900
O374        O  0.96508724  0.85169073  0.62589712    -0.73500
O375        O  0.99691755  0.81398939  0.68562713    -0.73300
O376        O  0.96610666  0.77760562  0.63384908    -0.72800
O377        O  0.97415010  0.85203349  0.65830680    -0.73500
O378        O  0.95273714  0.80578279  0.62104435    -0.73100
O379        O  0.99426070  0.78330832  0.67269098    -0.73700
O380        O  0.03756479  0.79449738  0.62291950    -0.73100
O381        O  0.02356049  0.84811768  0.65804310    -0.73800
O382        O  0.01644570  0.77029473  0.63274623    -0.73200
O383        O  0.03542571  0.84163802  0.62728027    -0.73700
O384        O  0.01497481  0.81981149  0.58686032    -0.73600
O385        O  0.98183099  0.82361415  0.58637392    -0.73400
C386        C  0.96408462  0.85935794  0.64348746     0.78400
C387        C  0.99576195  0.79480985  0.68786132     0.78900
C388        C  0.95115900  0.78753272  0.62675328     0.77900
C389        C  0.03400524  0.77624187  0.62763471     0.78200
C390        C  0.03627769  0.85121037  0.64383048     0.79400
C391        C  0.99853233  0.82158185  0.57692226     0.78400
Zn392      Zn  0.97753595  0.81303082  0.34458252     1.49700
Zn393      Zn  0.99924592  0.79061580  0.38245904     1.49400
Zn394      Zn  0.02313334  0.81378644  0.34695875     1.49100
Zn395      Zn  0.99775171  0.83761524  0.38060152     1.49500
O396        O  0.99940578  0.81360857  0.36407171    -1.82900
O397        O  0.95801053  0.79311907  0.35449812    -0.73500
O398        O  0.02564132  0.77571149  0.37946083    -0.73300
O399        O  0.01862770  0.80043786  0.31949067    -0.72800
O400        O  0.97498201  0.77339509  0.37598825    -0.73500
O401        O  0.98536130  0.80134203  0.31711377    -0.73100
O402        O  0.04382334  0.79671210  0.36040523    -0.73700
O403        O  0.02033268  0.85630920  0.37216588    -0.73100
O404        O  0.99759430  0.79867936  0.41267416    -0.73800
O405        O  0.03406492  0.84224152  0.34489339    -0.73200
O406        O  0.99862309  0.83201529  0.41151657    -0.73700
O407        O  0.97199746  0.85236463  0.37342396    -0.73600
O408        O  0.96274610  0.83994856  0.34363481    -0.73400
C409        C  0.95916228  0.77759181  0.36574143     0.78400
C410        C  0.04245966  0.78134040  0.37189687     0.78900
C411        C  0.00247745  0.79610668  0.30998183     0.77900
C412        C  0.03247713  0.85693174  0.35719455     0.78200
C413        C  0.99804662  0.81562295  0.42179842     0.79400
C414        C  0.96079794  0.85285036  0.35776161     0.78400
Zn415      Zn  0.15325592  0.68020308  0.52425142     1.49700
Zn416      Zn  0.15601886  0.68241720  0.47890975     1.49400
Zn417      Zn  0.12029784  0.65592927  0.49891765     1.49100
Zn418      Zn  0.11768113  0.70257383  0.50139371     1.49500
O419        O  0.13642627  0.68027597  0.50064123    -1.82900
O420        O  0.17969653  0.69611209  0.52021095    -0.73500
O421        O  0.15704928  0.65622695  0.46329864    -0.73300
O422        O  0.12985926  0.63689269  0.52064817    -0.72800
O423        O  0.18356600  0.69426093  0.48719712    -0.73500
O424        O  0.15733070  0.65150654  0.53343385    -0.73100
O425        O  0.12825356  0.64184773  0.47335721    -0.73700
O426        O  0.08801563  0.69386357  0.49878754    -0.73100
O427        O  0.14543814  0.70280920  0.45999158    -0.73800
O428        O  0.08892388  0.66052937  0.49982847    -0.73200
O429        O  0.12365511  0.72095213  0.47809004    -0.73700
O430        O  0.11935469  0.71599017  0.52840134    -0.73600
O431        O  0.13794649  0.69386738  0.54583987    -0.73400
C432        C  0.18978436  0.70036579  0.50433028     0.78400
C433        C  0.14369563  0.64241553  0.46182133     0.78900
C434        C  0.14557115  0.63636270  0.53182266     0.77900
C435        C  0.07875738  0.67700099  0.49901023     0.78200
C436        C  0.13355619  0.71776307  0.46188864     0.79400
C437        C  0.12594447  0.70884929  0.54504640     0.78400
Zn438      Zn  0.88189309  0.65822842  0.49464717     1.49700
Zn439      Zn  0.88421156  0.70517618  0.49397822     1.49400
Zn440      Zn  0.84632414  0.68340697  0.47317109     1.49100
Zn441      Zn  0.84859541  0.68385110  0.51847841     1.49500
O442        O  0.86572064  0.68270900  0.49506419    -1.82900
O443        O  0.91286690  0.66316612  0.49429477    -0.73500
O444        O  0.87991066  0.72000801  0.46778006    -0.73300
O445        O  0.84414291  0.65602145  0.46088109    -0.72800
O446        O  0.91419263  0.69653356  0.49507212    -0.73500
O447        O  0.87377360  0.64271939  0.47016401    -0.73100
O448        O  0.85742444  0.70087484  0.45185798    -0.73700
O449        O  0.82108808  0.69697211  0.51334550    -0.73100
O450        O  0.87926016  0.72261428  0.51805695    -0.73800
O451        O  0.81906625  0.69630002  0.48014203    -0.73200
O452        O  0.86102038  0.70242210  0.53779987    -0.73700
O453        O  0.84715778  0.65652568  0.53157714    -0.73600
O454        O  0.87393679  0.64077912  0.51859650    -0.73400
C455        C  0.92317941  0.67944355  0.49481028     0.78400
C456        C  0.86991787  0.71535795  0.45203491     0.78900
C457        C  0.85777852  0.64245591  0.45944758     0.77900
C458        C  0.81179730  0.70153681  0.49712064     0.78200
C459        C  0.87130573  0.71835848  0.53506154     0.79400
C460        C  0.85922658  0.64148106  0.53107835     0.78400
Zn461      Zn  0.82056828  0.02443548  0.61853494     1.49700
Zn462      Zn  0.78611304  0.99993798  0.64072237     1.49400
Zn463      Zn  0.82355734  0.97988038  0.61788010     1.49100
Zn464      Zn  0.82965686  0.00136930  0.66128346     1.49500
O465        O  0.81492745  0.00138533  0.63519667    -1.82900
O466        O  0.79857545  0.04408212  0.62297117    -0.73500
O467        O  0.77461933  0.97387410  0.63029852    -0.73300
O468        O  0.82650244  0.98621770  0.58733489    -0.72800
O469        O  0.77202282  0.02557381  0.63184951    -0.73500
O470        O  0.82254023  0.01922904  0.58761864    -0.73100
O471        O  0.80303828  0.95888750  0.62037618    -0.73700
O472        O  0.84955289  0.97698095  0.66139841    -0.73100
O473        O  0.78054800  0.99893337  0.67025767    -0.73800
O474        O  0.84826650  0.96744968  0.62921431    -0.73200
O475        O  0.80967967  0.00125575  0.68648654    -0.73700
O476        O  0.84751759  0.02657155  0.66132805    -0.73600
O477        O  0.84519657  0.03739412  0.62944448    -0.73400
C478        C  0.77994284  0.04252739  0.62731084     0.78400
C479        C  0.78432631  0.95827617  0.62454039     0.78900
C480        C  0.82498800  0.00290000  0.57773056     0.77900
C481        C  0.85590461  0.96604096  0.64678926     0.78200
C482        C  0.79030811  0.99990513  0.68670188     0.79400
C483        C  0.85312174  0.03823552  0.64694353     0.78400
Zn484      Zn  0.81393837  0.97695509  0.34644084     1.49700
Zn485      Zn  0.81478868  0.02241554  0.34552237     1.49400
Zn486      Zn  0.79322147  0.00018951  0.38362656     1.49100
Zn487      Zn  0.84014000  0.99937972  0.38006543     1.49500
O488        O  0.81539665  0.99982610  0.36436338    -1.82900
O489        O  0.80026823  0.98293543  0.31945878    -0.73500
O490        O  0.79719806  0.04322690  0.35772429    -0.73300
O491        O  0.77655897  0.97487156  0.38007004    -0.72800
O492        O  0.80087563  0.01621083  0.31848374    -0.73500
O493        O  0.79569227  0.95735181  0.35873406    -0.73100
O494        O  0.77743796  0.02565571  0.37863490    -0.73700
O495        O  0.83581307  0.00022204  0.41128573    -0.73100
O496        O  0.84300089  0.03411469  0.34265112    -0.73800
O497        O  0.80248183  0.00090110  0.41363124    -0.73200
O498        O  0.85770226  0.02236489  0.37058251    -0.73700
O499        O  0.85586507  0.97453517  0.37225855    -0.73600
O500        O  0.84098372  0.96305463  0.34447282    -0.73400
C501        C  0.79536420  0.99947488  0.31086725     0.78400
C502        C  0.78217213  0.04206361  0.36963867     0.78900
C503        C  0.78084280  0.95858645  0.37076153     0.77900
C504        C  0.81982057  0.00076405  0.42216638     0.78200
C505        C  0.85790942  0.03363691  0.35490341     0.79400
C506        C  0.85543962  0.96261076  0.35721475     0.78400
Zn507      Zn  0.65683463  0.12304236  0.49385632     1.49700
Zn508      Zn  0.68152880  0.15532073  0.52044699     1.49400
Zn509      Zn  0.70381576  0.11957315  0.49853884     1.49100
Zn510      Zn  0.68478190  0.15839876  0.47484905     1.49500
O511        O  0.68162682  0.13865614  0.49667606    -1.82900
O512        O  0.63763729  0.13255839  0.51596817    -0.73500
O513        O  0.69611417  0.14114971  0.54229363    -0.73300
O514        O  0.69469714  0.08981823  0.49817411    -0.72800
O515        O  0.65315978  0.15875299  0.53018088    -0.73500
O516        O  0.66142981  0.09130233  0.49502433    -0.73100
O517        O  0.71827588  0.12284069  0.52498760    -0.73700
O518        O  0.70568285  0.14746714  0.45654988    -0.73100
O519        O  0.69682454  0.18186499  0.51677648    -0.73800
O520        O  0.72190699  0.12409846  0.47469885    -0.73200
O521        O  0.69651425  0.18578973  0.48367653    -0.73700
O522        O  0.65898320  0.16021649  0.45819452    -0.73600
O523        O  0.64349974  0.13182637  0.46755588    -0.73400
C524        C  0.63775217  0.14741036  0.52822753     0.78400
C525        C  0.71171157  0.12997761  0.54157018     0.78900
C526        C  0.67769962  0.08081750  0.49690853     0.77900
C527        C  0.71974791  0.13451197  0.45859330     0.78200
C528        C  0.70174129  0.19194191  0.50111699     0.79400
C529        C  0.64486039  0.14728871  0.45598255     0.78400
Zn530      Zn  0.68604559  0.84671669  0.52136163     1.49700
Zn531      Zn  0.65997826  0.88221415  0.50066842     1.49400
Zn532      Zn  0.70688489  0.88430976  0.49801719     1.49100
Zn533      Zn  0.68398903  0.84704326  0.47691814     1.49500
O534        O  0.68437104  0.86575076  0.49924222    -1.82900
O535        O  0.65961129  0.84516459  0.53577696    -0.73500
O536        O  0.66492176  0.91358944  0.50098687    -0.73300
O537        O  0.72412125  0.87909931  0.52272042    -0.72800
O538        O  0.64435743  0.87345208  0.52547774    -0.73500
O539        O  0.70498907  0.85786473  0.54058753    -0.73100
O540        O  0.69822437  0.91474895  0.49845606    -0.73700
O541        O  0.70050573  0.85864629  0.45544663    -0.73100
O542        O  0.64263016  0.87423804  0.47700670    -0.73800
O543        O  0.72159255  0.87902940  0.47179588    -0.73200
O544        O  0.65579661  0.84516506  0.46608702    -0.73700
O545        O  0.69797038  0.81970679  0.48190776    -0.73600
O546        O  0.69859364  0.81922252  0.51505236    -0.73400
C547        C  0.64527776  0.85799181  0.53705595     0.78400
C548        C  0.68122219  0.92394947  0.49984651     0.78900
C549        C  0.72007186  0.86949493  0.53898187     0.77900
C550        C  0.71600568  0.86982875  0.45585306     0.78200
C551        C  0.64186895  0.85853501  0.46592046     0.79400
C552        C  0.70327198  0.81114521  0.49831992     0.78400
Zn553      Zn  0.65319968  0.97548843  0.18172348     1.49700
Zn554      Zn  0.64743686  0.02042035  0.18554033     1.49400
Zn555      Zn  0.61825509  0.99746010  0.15554472     1.49100
Zn556      Zn  0.61215977  0.99285643  0.20093876     1.49500
O557        O  0.63263284  0.99615337  0.18079979    -1.82900
O558        O  0.67975254  0.98477068  0.19531003    -0.73500
O559        O  0.65436310  0.03300736  0.15919726    -0.73300
O560        O  0.62692806  0.97315310  0.14017438    -0.72800
O561        O  0.67237441  0.01636962  0.20322784    -0.73500
O562        O  0.65564475  0.96230960  0.15422473    -0.73100
O563        O  0.62934520  0.02117275  0.14001621    -0.73700
O564        O  0.58393157  0.98807087  0.18958879    -0.73100
O565        O  0.62796380  0.03927140  0.19751479    -0.73800
O566        O  0.58656373  0.99774395  0.15780839    -0.73200
O567        O  0.60842548  0.01871135  0.21544578    -0.73700
O568        O  0.61914019  0.96939674  0.21839363    -0.73600
O569        O  0.64271414  0.95407642  0.19977416    -0.73400
C570        C  0.68405758  0.00106432  0.20464130     0.78400
C571        C  0.64437863  0.03288253  0.14278735     0.78900
C572        C  0.64230630  0.96149956  0.14028992     0.77900
C573        C  0.57558366  0.99226390  0.17276676     0.78200
C574        C  0.61291819  0.03625607  0.20900493     0.79400
C575        C  0.63012231  0.95413688  0.21424676     0.78400
Zn576      Zn  0.37996447  0.97569357  0.17932186     1.49700
Zn577      Zn  0.33823282  0.99775427  0.16900652     1.49400
Zn578      Zn  0.35622822  0.00041739  0.21301263     1.49100
Zn579      Zn  0.38101535  0.02140277  0.17748569     1.49500
O580        O  0.36356263  0.99905229  0.18469502    -1.82900
O581        O  0.37042778  0.96240295  0.15426787    -0.73500
O582        O  0.31232414  0.99854470  0.18721523    -0.73300
O583        O  0.36457318  0.97495639  0.22735907    -0.72800
O584        O  0.33869026  0.97296687  0.15055259    -0.73500
O585        O  0.37573013  0.95650307  0.20166277    -0.73100
O586        O  0.32632274  0.00275545  0.21727324    -0.73700
O587        O  0.37911765  0.04226389  0.19909322    -0.73100
O588        O  0.33831424  0.02161208  0.14966333    -0.73800
O589        O  0.36678571  0.02554433  0.22547480    -0.73200
O590        O  0.36946144  0.03399545  0.15268459    -0.73700
O591        O  0.41136520  0.01402433  0.17377387    -0.73600
O592        O  0.41038829  0.98089018  0.17709381    -0.73400
C593        C  0.35347257  0.96170813  0.14523705     0.78400
C594        C  0.31072543  0.00133587  0.20624617     0.78900
C595        C  0.37051921  0.95822582  0.22001483     0.77900
C596        C  0.37378566  0.04158498  0.21751918     0.78200
C597        C  0.35225069  0.03371043  0.14404252     0.79400
C598        C  0.42053707  0.99702918  0.17458233     0.78400
Zn599      Zn  0.50064448  0.16307705  0.32859756     1.49700
Zn600      Zn  0.52132532  0.12074454  0.31341381     1.49400
Zn601      Zn  0.47904079  0.11939967  0.32970775     1.49100
Zn602      Zn  0.48652367  0.14285239  0.28853835     1.49500
O603        O  0.49708571  0.13688850  0.31499274    -1.82900
O604        O  0.52818261  0.16193791  0.34253423    -0.73500
O605        O  0.51716212  0.08953443  0.31761991    -0.73300
O606        O  0.47464090  0.13114334  0.35670625    -0.72800
O607        O  0.54095493  0.13206045  0.33368585    -0.73500
O608        O  0.47946876  0.16412785  0.35173393    -0.73100
O609        O  0.48665529  0.08912394  0.33091999    -0.73700
O610        O  0.45754133  0.13481454  0.28679561    -0.73100
O611        O  0.53184586  0.12450064  0.28556155    -0.73800
O612        O  0.45218197  0.12018975  0.31656418    -0.73200
O613        O  0.50365732  0.12953016  0.26772479    -0.73700
O614        O  0.48814515  0.17209057  0.28122782    -0.73600
O615        O  0.49913658  0.18809861  0.30820716    -0.73400
C616        C  0.54194486  0.14836910  0.34383807     0.78400
C617        C  0.50224272  0.07955044  0.32480072     0.78900
C618        C  0.47231566  0.14942035  0.36218211     0.77900
C619        C  0.44591940  0.12620076  0.29945591     0.78200
C620        C  0.52251227  0.12578188  0.26879232     0.79400
C621        C  0.49365045  0.18835281  0.28962052     0.78400
Zn622      Zn  0.49975347  0.88461648  0.29660055     1.49700
Zn623      Zn  0.47916459  0.84609536  0.31742634     1.49400
Zn624      Zn  0.52388012  0.84726875  0.31715653     1.49100
Zn625      Zn  0.49925467  0.88079579  0.34312861     1.49500
O626        O  0.50080484  0.86531922  0.31845533    -1.82900
O627        O  0.47343225  0.88037847  0.28178726    -0.73500
O628        O  0.48571039  0.82041336  0.30198846    -0.73300
O629        O  0.54351264  0.86014896  0.29911092    -0.72800
O630        O  0.45747288  0.85847285  0.30187159    -0.73500
O631        O  0.52441482  0.87998355  0.27954780    -0.73100
O632        O  0.51899657  0.81974079  0.30346932    -0.73700
O633        O  0.52241627  0.87146674  0.36052232    -0.73100
O634        O  0.46745943  0.84174326  0.34487831    -0.73800
O635        O  0.53629442  0.84516715  0.34466636    -0.73200
O636        O  0.47435821  0.87175123  0.35816008    -0.73700
O637        O  0.49938087  0.91235611  0.33914032    -0.73600
O638        O  0.50042161  0.91460668  0.30588585    -0.73400
C639        C  0.45754841  0.87094997  0.28733917     0.78400
C640        C  0.50244930  0.81212583  0.29734209     0.78900
C641        C  0.54122110  0.87137327  0.28368141     0.77900
C642        C  0.53490429  0.85674044  0.35993789     0.78200
C643        C  0.46468071  0.85509408  0.35838057     0.79400
C644        C  0.50001114  0.92322541  0.32310190     0.78400
Zn645      Zn  0.65683335  0.18239202  0.02557613     1.49700
Zn646      Zn  0.65325075  0.18629426  0.98033131     1.49400
Zn647      Zn  0.62206269  0.15715640  0.00278929     1.49100
Zn648      Zn  0.61696547  0.20346375  0.00670862     1.49500
O649        O  0.63692580  0.18233396  0.00397138    -1.82900
O650        O  0.68419352  0.19529933  0.01834081    -0.73500
O651        O  0.65716410  0.15988344  0.96623626    -0.73300
O652        O  0.62977046  0.14110279  0.02727467    -0.72800
O653        O  0.67963780  0.20106122  0.98583193    -0.73500
O654        O  0.65863238  0.15474013  0.03785911    -0.73100
O655        O  0.63235659  0.14108285  0.97908613    -0.73700
O656        O  0.58766510  0.19313225  0.00786458    -0.73100
O657        O  0.63816771  0.20397037  0.96188382    -0.73800
O658        O  0.59077449  0.16049718  0.00187710    -0.73200
O659        O  0.61788995  0.22126532  0.98227146    -0.73700
O660        O  0.62242398  0.21821776  0.03233061    -0.73600
O661        O  0.64626840  0.19967204  0.04737479    -0.73400
C662        C  0.69003433  0.20333096  0.00182313     0.78400
C663        C  0.64688003  0.14363599  0.96666315     0.78900
C664        C  0.64526781  0.14091366  0.03870400     0.77900
C665        C  0.57955473  0.17595269  0.00492531     0.78200
C666        C  0.62539527  0.21797232  0.96489414     0.79400
C667        C  0.63327141  0.21379666  0.04763619     0.78400
Zn668      Zn  0.36296852  0.20446875  0.00727670     1.49700
Zn669      Zn  0.34188042  0.16288275  0.99984567     1.49400
Zn670      Zn  0.38570969  0.17230521  0.98061949     1.49100
Zn671      Zn  0.38358504  0.16512490  0.02569198     1.49500
O672        O  0.36820888  0.17618862  0.00343997    -1.82900
O673        O  0.33358749  0.21083236  0.00621444    -0.73500
O674        O  0.34313622  0.14678163  0.97396764    -0.73300
O675        O  0.38330439  0.19661350  0.96334826    -0.72800
O676        O  0.31718415  0.18280691  0.99902921    -0.73500
O677        O  0.37431740  0.22102075  0.98447921    -0.73100
O678        O  0.37521740  0.14969991  0.96421083    -0.73700
O679        O  0.41441990  0.16299888  0.02048292    -0.73100
O680        O  0.33884770  0.14202195  0.02226930    -0.73800
O681        O  0.41579173  0.16835590  0.98759143    -0.73200
O682        O  0.37058664  0.13898304  0.03366504    -0.73700
O683        O  0.38097625  0.18361516  0.04910380    -0.73600
O684        O  0.37182375  0.21270092  0.03474578    -0.73400
C685        C  0.31714966  0.20178943  0.00247815     0.78400
C686        C  0.35768615  0.14210754  0.96219814     0.78900
C687        C  0.37959079  0.21506189  0.96701542     0.77900
C688        C  0.42475415  0.16517279  0.00434555     0.78200
C689        C  0.35228784  0.13294708  0.03280880     0.79400
C690        C  0.37721859  0.20241527  0.05011694     0.78400
Zn691      Zn  0.52816027  0.32275123  0.11340196     1.49700
Zn692      Zn  0.50503606  0.33451346  0.15500543     1.49400
Zn693      Zn  0.48259813  0.32887934  0.11195331     1.49100
Zn694      Zn  0.50047291  0.29116133  0.13717207     1.49500
O695        O  0.50401724  0.31933196  0.12954254    -1.82900
O696        O  0.54288077  0.34704770  0.12392411    -0.73500
O697        O  0.48243690  0.35541256  0.15477953    -0.73300
O698        O  0.49057631  0.33243522  0.08206089    -0.72800
O699        O  0.53041890  0.35145910  0.15482989    -0.73500
O700        O  0.52320896  0.32519625  0.08222529    -0.73100
O701        O  0.47154885  0.35475982  0.12301101    -0.73700
O702        O  0.47463634  0.28092477  0.12617195    -0.73100
O703        O  0.50340691  0.31637668  0.18099150    -0.73800
O704        O  0.46038689  0.30859428  0.11308987    -0.73200
O705        O  0.49757874  0.28672401  0.16693692    -0.73700
O706        O  0.52504698  0.27474127  0.13020319    -0.73600
O707        O  0.54567744  0.29900626  0.11934540    -0.73400
C708        C  0.54287580  0.35611990  0.14087012     0.78400
C709        C  0.47169680  0.36271474  0.14048109     0.78900
C710        C  0.50711211  0.32978278  0.07248324     0.77900
C711        C  0.45953818  0.29018066  0.11860141     0.78200
C712        C  0.49973932  0.29747624  0.18253419     0.79400
C713        C  0.54256438  0.28099024  0.12531335     0.78400
Zn714      Zn  0.52297484  0.33001181  0.87564580     1.49700
Zn715      Zn  0.49930521  0.33520840  0.83317749     1.49400
Zn716      Zn  0.49645046  0.29385329  0.85725409     1.49100
Zn717      Zn  0.47834429  0.33274807  0.87803600     1.49500
O718        O  0.49929135  0.32277847  0.86043683    -1.82900
O719        O  0.53831535  0.35121732  0.86082539    -0.73500
O720        O  0.49681993  0.31348474  0.80966384    -0.73300
O721        O  0.52088068  0.27985031  0.86885607    -0.72800
O722        O  0.52535897  0.35212688  0.82976979    -0.73500
O723        O  0.54036652  0.30637684  0.87510811    -0.73100
O724        O  0.49568708  0.28557711  0.82807181    -0.73700
O725        O  0.45539281  0.31351599  0.87789792    -0.73100
O726        O  0.47606312  0.35573608  0.83321576    -0.73800
O727        O  0.46999081  0.28460079  0.86924131    -0.73200
O728        O  0.46842512  0.35834801  0.86604477    -0.73700
O729        O  0.48607586  0.33587720  0.90811707    -0.73600
O730        O  0.51926850  0.33587498  0.90621215    -0.73400
C731        C  0.53866242  0.35756406  0.84264573     0.78400
C732        C  0.49581990  0.29414234  0.81084773     0.78900
C733        C  0.53791007  0.28750051  0.87347922     0.77900
C734        C  0.45468258  0.29450935  0.87550349     0.78200
C735        C  0.46691848  0.36443234  0.84784093     0.79400
C736        C  0.50322083  0.33670124  0.91687382     0.78400
Zn737      Zn  0.20769242  0.37931307  0.99872476     1.49700
Zn738      Zn  0.16085253  0.37492743  0.99811739     1.49400
Zn739      Zn  0.18725803  0.34171351  0.97554692     1.49100
Zn740      Zn  0.18788581  0.34132101  0.02153097     1.49500
O741        O  0.18597248  0.35962931  0.99865642    -1.82900
O742        O  0.19758171  0.40886756  0.00140041    -0.73500
O743        O  0.14404929  0.36562918  0.97455468    -0.73300
O744        O  0.20382315  0.35505376  0.95498106    -0.72800
O745        O  0.16446611  0.40611431  0.99772278    -0.73500
O746        O  0.22198917  0.37757129  0.97198204    -0.73100
O747        O  0.16004206  0.33851367  0.96276609    -0.73700
O748        O  0.19915536  0.31344176  0.01431478    -0.73100
O749        O  0.14510893  0.36706532  0.02268062    -0.73800
O750        O  0.20101593  0.31471083  0.98108178    -0.73200
O751        O  0.16128661  0.34078110  0.03636723    -0.73700
O752        O  0.20826969  0.35199003  0.04061028    -0.73600
O753        O  0.22620269  0.37373559  0.02230573    -0.73400
C754        C  0.18014028  0.41712580  0.00000741     0.78400
C755        C  0.14495447  0.35050328  0.96274285     0.78900
C756        C  0.21745742  0.36843152  0.95571566     0.77900
C757        C  0.20476910  0.30566989  0.99764901     0.78200
C758        C  0.14629255  0.35295511  0.03576822     0.79400
C759        C  0.22323901  0.36379143  0.03857312     0.78400
Zn760      Zn  0.17247241  0.61321372  0.02050277     1.49700
Zn761      Zn  0.20964263  0.63723391  0.00160269     1.49400
Zn762      Zn  0.17754727  0.61248610  0.97524490     1.49100
Zn763      Zn  0.16607094  0.65522633  0.99614548     1.49500
O764        O  0.18142147  0.62978739  0.99833055    -1.82900
O765        O  0.19204348  0.61713185  0.04262958    -0.73500
O766        O  0.22521082  0.63018562  0.97646507    -0.73300
O767        O  0.17521472  0.58171110  0.98175540    -0.72800
O768        O  0.22065088  0.62681171  0.02792790    -0.73500
O769        O  0.17119245  0.58244192  0.01479596    -0.73100
O770        O  0.20082140  0.61746628  0.95720895    -0.73700
O771        O  0.14978676  0.65425814  0.97034334    -0.73100
O772        O  0.21354475  0.66710639  0.00384139    -0.73800
O773        O  0.15400690  0.62272459  0.95931920    -0.73200
O774        O  0.18403307  0.68131548  0.99692301    -0.73700
O775        O  0.14525813  0.65566560  0.01875176    -0.73600
O776        O  0.14623011  0.62417547  0.03072895    -0.73400
C777        C  0.21069332  0.62155292  0.04355912     0.78400
C778        C  0.21862282  0.62426114  0.95943734     0.78900
C779        C  0.17281764  0.57233708  0.99850591     0.77900
C780        C  0.14566235  0.64006335  0.95808977     0.78200
C781        C  0.20287468  0.68282812  0.00102797     0.79400
C782        C  0.13822328  0.64170767  0.03010015     0.78400
Zn783      Zn  0.31488614  0.51930907  0.15354546     1.49700
Zn784      Zn  0.31839499  0.47338820  0.15478671     1.49400
Zn785      Zn  0.29600172  0.49445666  0.11654120     1.49100
Zn786      Zn  0.34267844  0.49874661  0.12047529     1.49500
O787        O  0.31786849  0.49624122  0.13602915    -1.82900
O788        O  0.30225721  0.51256604  0.18081046    -0.73500
O789        O  0.30229156  0.45128046  0.14220970    -0.73300
O790        O  0.27784496  0.51911666  0.11929897    -0.72800
O791        O  0.30450868  0.47930517  0.18223570    -0.73500
O792        O  0.29524311  0.53776159  0.14101806    -0.73100
O793        O  0.28182658  0.46805559  0.12122522    -0.73700
O794        O  0.33901722  0.49641232  0.08945168    -0.73100
O795        O  0.34739901  0.46348650  0.15755605    -0.73800
O796        O  0.30581791  0.49363832  0.08683900    -0.73200
O797        O  0.36239488  0.47803698  0.13109499    -0.73700
O798        O  0.35571966  0.52527315  0.12675604    -0.73600
O799        O  0.34098349  0.53488773  0.15530559    -0.73400
C800        C  0.29848657  0.49596597  0.18982153     0.78400
C801        C  0.28749161  0.45175231  0.12994107     0.78900
C802        C  0.28084678  0.53569420  0.12857450     0.77900
C803        C  0.32321714  0.49461801  0.07851105     0.78200
C804        C  0.36283599  0.46604352  0.14621638     0.79400
C805        C  0.35484238  0.53681579  0.14205101     0.78400
Zn806      Zn  0.32578958  0.52231125  0.88379522     1.49700
Zn807      Zn  0.28744109  0.50403763  0.86211483     1.49400
Zn808      Zn  0.32988180  0.50071825  0.84030139     1.49100
Zn809      Zn  0.32187362  0.47767927  0.88218400     1.49500
O810        O  0.31614197  0.50127312  0.86666484    -1.82900
O811        O  0.30693344  0.54536944  0.88042589    -0.73500
O812        O  0.28113332  0.50280627  0.83280691    -0.73300
O813        O  0.34981825  0.52407133  0.83976705    -0.72800
O814        O  0.27792112  0.53176109  0.87053950    -0.73500
O815        O  0.35206265  0.53163817  0.87249647    -0.73100
O816        O  0.30981585  0.50115664  0.81577934    -0.73700
O817        O  0.34590783  0.46392663  0.87055905    -0.73100
O818        O  0.27251900  0.47976695  0.87296242    -0.73800
O819        O  0.34771963  0.47560558  0.83908435    -0.73200
O820        O  0.29908890  0.45958663  0.87763148    -0.73700
O821        O  0.32458383  0.48189175  0.91289025    -0.73600
O822        O  0.32761366  0.51498241  0.91433589    -0.73400
C823        C  0.28836685  0.54704442  0.87571632     0.78400
C824        C  0.29046233  0.50166120  0.81610880     0.78900
C825        C  0.35847318  0.53310681  0.85439316     0.77900
C826        C  0.35358596  0.46347239  0.85293548     0.78200
C827        C  0.28022663  0.46221324  0.87522994     0.79400
C828        C  0.32660584  0.49788915  0.92332352     0.78400
Zn829      Zn  0.98421961  0.61729329  0.17941104     1.49700
Zn830      Zn  0.02825412  0.61752239  0.16952551     1.49400
Zn831      Zn  0.00429628  0.65983673  0.16846089     1.49100
Zn832      Zn  0.01346569  0.63844317  0.21060903     1.49500
O833        O  0.00775082  0.63369386  0.18219889    -1.82900
O834        O  0.98948969  0.58688114  0.17649187    -0.73500
O835        O  0.03577331  0.63054929  0.14307475    -0.73300
O836        O  0.97794537  0.65935168  0.15219727    -0.72800
O837        O  0.02157560  0.58698197  0.16740222    -0.73500
O838        O  0.96754837  0.62772857  0.15675947    -0.73100
O839        O  0.02645251  0.66273884  0.14729562    -0.73700
O840        O  0.01491529  0.66820107  0.21655854    -0.73100
O841        O  0.05230931  0.61874917  0.18702105    -0.73800
O842        O  0.00492306  0.68388155  0.18862525    -0.73200
O843        O  0.04096871  0.62696078  0.21751635    -0.73700
O844        O  0.98999203  0.62889477  0.22816772    -0.73600
O845        O  0.96811668  0.62152585  0.20379782    -0.73400
C846        C  0.00543268  0.57724588  0.17151484     0.78400
C847        C  0.03571964  0.64901673  0.13745543     0.78900
C848        C  0.96579241  0.64493185  0.14827651     0.77900
C849        C  0.01026630  0.68437203  0.20717780     0.78200
C850        C  0.05518844  0.62127883  0.20578912     0.79400
C851        C  0.97206755  0.62519639  0.22213628     0.78400
Zn852      Zn  0.00213547  0.38410940  0.20385969     1.49700
Zn853      Zn  0.02546776  0.34574548  0.18545505     1.49400
Zn854      Zn  0.97993700  0.34699309  0.18223070     1.49100
Zn855      Zn  0.00411442  0.38001802  0.15741605     1.49500
O856        O  0.00312055  0.36460276  0.18230151    -1.82900
O857        O  0.02600567  0.37952740  0.22211356    -0.73500
O858        O  0.01766998  0.31860585  0.19850859    -0.73300
O859        O  0.95862190  0.36119508  0.19710546    -0.72800
O860        O  0.04452356  0.35711329  0.20531966    -0.73500
O861        O  0.97586192  0.38087933  0.21813848    -0.73100
O862        O  0.98437569  0.32041292  0.19755557    -0.73700
O863        O  0.98138308  0.37097379  0.13913434    -0.73100
O864        O  0.04024264  0.34353157  0.15889393    -0.73800
O865        O  0.96922133  0.34337018  0.15401117    -0.73200
O866        O  0.02917519  0.37143571  0.14332302    -0.73700
O867        O  0.00407380  0.41126782  0.16092430    -0.73600
O868        O  0.00237068  0.41381568  0.19415262    -0.73400
C869        C  0.04225480  0.36934011  0.21983848     0.78400
C870        C  0.00045458  0.31135663  0.20322850     0.78900
C871        C  0.95937424  0.37325592  0.21188334     0.77900
C872        C  0.96991017  0.35550973  0.13902112     0.78200
C873        C  0.04104562  0.35627163  0.14439246     0.79400
C874        C  0.00311998  0.42214875  0.17676798     0.78400
Zn875      Zn  0.12022130  0.49412896  0.29359661     1.49700
Zn876      Zn  0.15602256  0.47350591  0.31887278     1.49400
Zn877      Zn  0.15609924  0.51911754  0.31453089     1.49100
Zn878      Zn  0.12054944  0.49865294  0.34053456     1.49500
O879        O  0.13778882  0.49635866  0.31685953    -1.82900
O880        O  0.12452884  0.46688067  0.28101760    -0.73500
O881        O  0.18361158  0.47863011  0.30586868    -0.73300
O882        O  0.14644134  0.53646498  0.29226739    -0.72800
O883        O  0.14472386  0.45119344  0.30302210    -0.73500
O884        O  0.12692965  0.51626494  0.27405593    -0.73100
O885        O  0.18456674  0.51190786  0.30487297    -0.73700
O886        O  0.12666225  0.52520340  0.35391332    -0.73100
O887        O  0.15719929  0.46370952  0.34760698    -0.73800
O888        O  0.15548250  0.53565066  0.33992225    -0.73200
O889        O  0.12931248  0.47735455  0.36083563    -0.73700
O890        O  0.08970946  0.49720166  0.33416157    -0.73600
O891        O  0.08984876  0.49677635  0.30076192    -0.73400
C892        C  0.13341065  0.45105015  0.28758498     0.78400
C893        C  0.19256050  0.49488840  0.30080091     0.78900
C894        C  0.13638574  0.53280987  0.27639173     0.77900
C895        C  0.14161382  0.53730689  0.35319790     0.78200
C896        C  0.14464430  0.46562786  0.36210410     0.79400
C897        C  0.08009941  0.49731748  0.31740379     0.78400
Zn898      Zn  0.88244411  0.50338859  0.33742340     1.49700
Zn899      Zn  0.84898934  0.48047807  0.31108517     1.49400
Zn900      Zn  0.84732957  0.52622875  0.31204377     1.49100
Zn901      Zn  0.88517116  0.50641665  0.29048770     1.49500
O902        O  0.86637396  0.50397584  0.31278653    -1.82900
O903        O  0.87526219  0.47829043  0.35350389    -0.73500
O904        O  0.82052010  0.48639642  0.29999178    -0.73300
O905        O  0.84349931  0.53630221  0.34003621    -0.72800
O906        O  0.84892921  0.46485427  0.33758181    -0.73500
O907        O  0.87207670  0.52593253  0.35481848    -0.73100
O908        O  0.82058350  0.51966967  0.29809272    -0.73700
O909        O  0.88139123  0.53330440  0.27656785    -0.73100
O910        O  0.86102985  0.46298105  0.29041721    -0.73800
O911        O  0.85954110  0.54889695  0.29680609    -0.73200
O912        O  0.88095903  0.48303938  0.27212768    -0.73700
O913        O  0.91499203  0.50522670  0.29933637    -0.73600
O914        O  0.91386095  0.50497286  0.33267736    -0.73400
C915        C  0.86106626  0.46531729  0.35255288     0.78400
C916        C  0.81205982  0.50285690  0.29445800     0.78900
C917        C  0.85574703  0.53628011  0.35486912     0.77900
C918        C  0.87226054  0.54919215  0.28247516     0.78200
C919        C  0.87235497  0.46612172  0.27523872     0.79400
C920        C  0.92414512  0.50505582  0.31628282     0.78400
Zn921      Zn  0.20671853  0.99924089  0.64267388     1.49700
Zn922      Zn  0.16280472  0.99555214  0.66059196     1.49400
Zn923      Zn  0.16983460  0.01882164  0.61771102     1.49100
Zn924      Zn  0.17413161  0.97391899  0.61793224     1.49500
O925        O  0.17835062  0.99696491  0.63515873    -1.82900
O926        O  0.21092876  0.00245573  0.67249169    -0.73500
O927        O  0.14133790  0.01802233  0.65986510    -0.73300
O928        O  0.19054061  0.03998529  0.62013032    -0.72800
O929        O  0.18113915  0.99758808  0.68688850    -0.73500
O930        O  0.21841971  0.02446953  0.63088491    -0.73100
O931        O  0.14420492  0.03039384  0.62867115    -0.73700
O932        O  0.17221210  0.97953956  0.58725613    -0.73100
O933        O  0.14696769  0.96921724  0.65992571    -0.73800
O934        O  0.16766845  0.01248403  0.58708035    -0.73200
O935        O  0.15103163  0.95800212  0.62840086    -0.73700
O936        O  0.19721578  0.95590102  0.62159333    -0.73600
O937        O  0.22179858  0.97384327  0.63540416    -0.73400
C938        C  0.20017232  0.00103733  0.68831260     0.78400
C939        C  0.13524121  0.02973766  0.64570068     0.78900
C940        C  0.20925230  0.04017050  0.62443836     0.77900
C941        C  0.16965806  0.99596386  0.57743457     0.78200
C942        C  0.14301390  0.95674682  0.64582513     0.79400
C943        C  0.21518193  0.95743412  0.62802689     0.78400
Zn944      Zn  0.20134213  0.99905187  0.38371264     1.49700
Zn945      Zn  0.18055027  0.97687573  0.34645952     1.49400
Zn946      Zn  0.15484086  0.00017846  0.38006759     1.49100
Zn947      Zn  0.18145309  0.02272706  0.34598268     1.49500
O948        O  0.17954180  0.99980985  0.36432942    -1.82900
O949        O  0.21723701  0.97392953  0.37956117    -0.73500
O950        O  0.15249672  0.96514625  0.34326863    -0.73300
O951        O  0.15867653  0.99873347  0.41128458    -0.72800
O952        O  0.19650624  0.95580084  0.36040568    -0.73500
O953        O  0.19198641  0.99779581  0.41343607    -0.73100
O954        O  0.13715847  0.97745873  0.37055241    -0.73700
O955        O  0.15467771  0.03730455  0.34473833    -0.73100
O956        O  0.19569014  0.98287818  0.31992472    -0.73800
O957        O  0.13989935  0.02528431  0.37249104    -0.73200
O958        O  0.19398298  0.01618531  0.31840197    -0.73700
O959        O  0.20075711  0.04192458  0.35777959    -0.73600
O960        O  0.21822854  0.02376152  0.38019036    -0.73400
C961        C  0.21144280  0.95715281  0.37233343     0.78400
C962        C  0.13743446  0.96574924  0.35533960     0.78900
C963        C  0.17470965  0.99770879  0.42202666     0.77900
C964        C  0.14040267  0.03763967  0.35771126     0.78200
C965        C  0.19997982  0.99946030  0.31102475     0.79400
C966        C  0.21509040  0.04005932  0.37036969     0.78400
Zn967      Zn  0.29086712  0.13847860  0.49869439     1.49700
Zn968      Zn  0.32787150  0.11860221  0.52180641     1.49400
Zn969      Zn  0.32844308  0.11734466  0.47660561     1.49100
Zn970      Zn  0.33220891  0.16112977  0.49636235     1.49500
O971        O  0.31974815  0.13421624  0.49847534    -1.82900
O972        O  0.27892420  0.12728609  0.52418304    -0.73500
O973        O  0.33141758  0.08751825  0.51670740    -0.73300
O974        O  0.30686470  0.11909707  0.45659803    -0.72800
O975        O  0.30638378  0.12130345  0.54267852    -0.73500
O976        O  0.27891294  0.12814695  0.47295162    -0.73100
O977        O  0.33217165  0.08707777  0.48347302    -0.73700
O978        O  0.35207261  0.16155520  0.47263013    -0.73100
O979        O  0.35264541  0.13218394  0.53258458    -0.73800
O980        O  0.35281121  0.12931449  0.46317443    -0.73200
O981        O  0.35023832  0.16384152  0.52054304    -0.73700
O982        O  0.31142139  0.18528427  0.49517465    -0.73600
O983        O  0.28328318  0.16783513  0.49901567    -0.73400
C984        C  0.28732360  0.12325120  0.54104772     0.78400
C985        C  0.33257951  0.07755777  0.50025607     0.78900
C986        C  0.28801457  0.12274825  0.45690660     0.77900
C987        C  0.35947536  0.14732147  0.46194795     0.78200
C988        C  0.35841171  0.15055766  0.53191065     0.79400
C989        C  0.29217274  0.18471950  0.49721670     0.78400
Zn990      Zn  0.29297461  0.85966070  0.50807427     1.49700
Zn991      Zn  0.33433409  0.83734901  0.49937774     1.49400
Zn992      Zn  0.32416207  0.88100880  0.47864926     1.49100
Zn993      Zn  0.33467625  0.88056284  0.52180099     1.49500
O994        O  0.32127660  0.86411112  0.50204563    -1.82900
O995        O  0.28570996  0.83015147  0.50865859    -0.73500
O996        O  0.34902463  0.83722109  0.47229994    -0.73300
O997        O  0.29930901  0.87819578  0.46309956    -0.72800
O998        O  0.31353337  0.81305771  0.50134147    -0.73500
O999        O  0.27535153  0.87115416  0.48563131    -0.73100
O1000       O  0.34571411  0.86911407  0.46179578    -0.73700
O1001       O  0.33739946  0.91102687  0.51538972    -0.73100
O1002       O  0.35735911  0.83548322  0.52033991    -0.73800
O1003       O  0.32839099  0.91177431  0.48349493    -0.73200
O1004       O  0.36127033  0.86799528  0.52819815    -0.73700
O1005       O  0.31814797  0.87962545  0.54638722    -0.73600
O1006       O  0.28750029  0.87016427  0.53596465    -0.73400
C1007       C  0.29454925  0.81339610  0.50540284     0.78400
C1008       C  0.35327708  0.85150160  0.45997964     0.78900
C1009       C  0.28090465  0.87542882  0.46767813     0.77900
C1010       C  0.33366886  0.92115420  0.49941414     0.78200
C1011       C  0.36744996  0.84975288  0.52849220     0.79400
C1012       C  0.29949231  0.87648527  0.54960152     0.78400
Zn1013     Zn  0.99698266  0.16583636  0.66123861     1.49700
Zn1014     Zn  0.00597428  0.20701354  0.63852940     1.49400
Zn1015     Zn  0.01728038  0.16551035  0.61780323     1.49100
Zn1016     Zn  0.97354803  0.17824586  0.61994994     1.49500
O1017       O  0.99838222  0.17926038  0.63483965    -1.82900
O1018       O  0.99978000  0.18632745  0.68511714    -0.73500
O1019       O  0.03351274  0.21159442  0.62682233    -0.73300
O1020       O  0.02347292  0.13847620  0.62960154    -0.72800
O1021       O  0.00845993  0.21360326  0.66773364    -0.73500
O1022       O  0.01873518  0.14367563  0.66246627    -0.73100
O1023       O  0.04307028  0.18066451  0.61807835    -0.73700
O1024       O  0.97737461  0.17544977  0.58891157    -0.73100
O1025       O  0.98396160  0.22601102  0.62875621    -0.73800
O1026       O  0.00881957  0.16420859  0.58810083    -0.73200
O1027       O  0.95906233  0.20381586  0.62509527    -0.73700
O1028       O  0.95667564  0.15622361  0.63185364    -0.73600
O1029       O  0.97038034  0.15053487  0.66217190    -0.73400
C1030       C  0.00517288  0.20489033  0.68451708     0.78400
C1031       C  0.04700419  0.19919829  0.62080870     0.78900
C1032       C  0.02575809  0.13310769  0.64795508     0.77900
C1033       C  0.99273178  0.16947562  0.57882809     0.78200
C1034       C  0.96524905  0.22185901  0.62681740     0.79400
C1035       C  0.95670337  0.14733056  0.64897130     0.78400
Zn1036     Zn  0.97507283  0.17028557  0.38336995     1.49700
Zn1037     Zn  0.99864945  0.16770738  0.34103360     1.49400
Zn1038     Zn  0.99016123  0.21034406  0.35980651     1.49100
Zn1039     Zn  0.01911957  0.18069557  0.38384786     1.49500
O1040       O  0.99575250  0.18235181  0.36663828    -1.82900
O1041       O  0.96570005  0.14433595  0.37147932    -0.73500
O1042       O  0.99816782  0.18676907  0.31531323    -0.73300
O1043       O  0.96341724  0.21827431  0.37135614    -0.72800
O1044       O  0.97624789  0.14652298  0.33952721    -0.73500
O1045       O  0.95177083  0.18871664  0.38230323    -0.73100
O1046       O  0.98796742  0.21498901  0.32994531    -0.73700
O1047       O  0.03542387  0.20533285  0.37899762    -0.73100
O1048       O  0.02438410  0.15116624  0.34319595    -0.73800
O1049       O  0.01334310  0.22834074  0.36804036    -0.73200
O1050       O  0.03541363  0.15730703  0.37438609    -0.73700
O1051       O  0.01302897  0.17807019  0.41452348    -0.73600
O1052       O  0.98156288  0.16728072  0.41365691    -0.73400
C1053       C  0.96581895  0.13803453  0.35338733     0.78400
C1054       C  0.99242226  0.20525003  0.31408664     0.78900
C1055       C  0.94926247  0.20735664  0.37850641     0.77900
C1056       C  0.03112441  0.22325643  0.37348413     0.78200
C1057       C  0.03648748  0.14767743  0.35783470     0.79400
C1058       C  0.99720701  0.17202507  0.42379379     0.78400
Zn1059     Zn  0.15874395  0.33219845  0.50177076     1.49700
Zn1060     Zn  0.11805019  0.31847578  0.52597259     1.49400
Zn1061     Zn  0.11460519  0.32853197  0.48161973     1.49100
Zn1062     Zn  0.13861322  0.28923550  0.49440811     1.49500
O1063       O  0.13300526  0.31710095  0.50104566    -1.82900
O1064       O  0.15916679  0.34839212  0.52808307    -0.73500
O1065       O  0.08685652  0.32098638  0.52252028    -0.73300
O1066       O  0.12446331  0.35548501  0.47334255    -0.72800
O1067       O  0.12933713  0.34125775  0.54216094    -0.73500
O1068       O  0.15751088  0.35415376  0.47965897    -0.73100
O1069       O  0.08481870  0.32944834  0.49036367    -0.73700
O1070       O  0.12730376  0.28226811  0.46718990    -0.73100
O1071       O  0.12344999  0.29309072  0.54107954    -0.73800
O1072       O  0.11557501  0.31202106  0.45690547    -0.73200
O1073       O  0.12965108  0.27071606  0.51688153    -0.73700
O1074       O  0.16829707  0.28426892  0.49225558    -0.73600
O1075       O  0.18432140  0.31280152  0.49878719    -0.73400
C1076       C  0.14586874  0.35112143  0.54184210     0.78400
C1077       C  0.07614140  0.32551689  0.50710497     0.78900
C1078       C  0.14215387  0.36275031  0.47149060     0.77900
C1079       C  0.11994286  0.29368833  0.45349632     0.78200
C1080       C  0.12641480  0.27504058  0.53531101     0.79400
C1081       C  0.18471194  0.29390121  0.49453196     0.78400
Zn1082     Zn  0.84536911  0.31900824  0.48069132     1.49700
Zn1083     Zn  0.84516030  0.32070482  0.52635450     1.49400
Zn1084     Zn  0.88225928  0.29926925  0.50668288     1.49100
Zn1085     Zn  0.87867241  0.34614817  0.50217220     1.49500
O1086       O  0.86333500  0.32127765  0.50369818    -1.82900
O1087       O  0.81776290  0.30695037  0.48784829    -0.73500
O1088       O  0.85928785  0.30796056  0.54972646    -0.73300
O1089       O  0.87777030  0.28032726  0.48373576    -0.72800
O1090       O  0.81945081  0.30425336  0.52104734    -0.73500
O1091       O  0.85679344  0.29748211  0.46358321    -0.73100
O1092       O  0.87859505  0.28566970  0.53363993    -0.73700
O1093       O  0.90989995  0.34205826  0.50510022    -0.73100
O1094       O  0.83932121  0.34921695  0.53378549    -0.73800
O1095       O  0.91187163  0.30870465  0.50655745    -0.73200
O1096       O  0.86709064  0.36497177  0.52301402    -0.73700
O1097       O  0.87220384  0.36030955  0.47594677    -0.73600
O1098       O  0.84449677  0.34541912  0.46425694    -0.73400
C1099       C  0.81058487  0.30030023  0.50446062     0.78400
C1100       C  0.87121349  0.29289404  0.54983273     0.78900
C1101       C  0.86819545  0.28237670  0.46715375     0.77900
C1102       C  0.92053727  0.32590538  0.50639901     0.78200
C1103       C  0.85045999  0.36486208  0.53283007     0.79400
C1104       C  0.85754825  0.35962051  0.46345329     0.78400
C1105       C  0.97580445  0.34407847  0.50325189    -0.26900
C1106       C  0.98683465  0.32693246  0.50968311     0.06700
C1107       C  0.97563622  0.30983836  0.51575692     0.26300
C1108       C  0.95434482  0.30980292  0.51478350    -0.11400
C1109       C  0.94333717  0.32676894  0.50790366    -0.25400
C1110       C  0.95447839  0.34406097  0.50233407     0.37100
C1111       C  0.00978528  0.32678067  0.50935605     0.06700
F1112       F  0.98522773  0.29277282  0.52195295    -0.19200
H1113       H  0.94641175  0.29623924  0.51936044     0.16500
F1114       F  0.94486590  0.36084358  0.49543747    -0.22900
H1115       H  0.98375316  0.35767513  0.49882775     0.18300
C1116       C  0.02060991  0.33463129  0.49273740     0.26300
C1117       C  0.04189486  0.33426219  0.49229330    -0.11400
C1118       C  0.05330990  0.32608018  0.50833092    -0.25400
C1119       C  0.04253790  0.31809470  0.52495193     0.37200
C1120       C  0.02117666  0.31852070  0.52542252    -0.27100
F1121       F  0.01062360  0.34213019  0.47647076    -0.19200
H1122       H  0.04948329  0.34037628  0.47914507     0.16500
F1123       F  0.05256983  0.30950018  0.54065568    -0.22900
H1124       H  0.01352591  0.31244954  0.53855330     0.18300
C1125       C  0.09982786  0.29036982  0.40056840    -0.26900
C1126       C  0.09557096  0.26972558  0.39962695     0.06700
C1127       C  0.10328169  0.25666140  0.41458473     0.26300
C1128       C  0.11299059  0.26448226  0.43138943    -0.11400
C1129       C  0.11505388  0.28537819  0.43355910    -0.25400
C1130       C  0.10970315  0.29820310  0.41735647     0.37100
C1131       C  0.07985759  0.26218090  0.38594440     0.06700
F1132       F  0.09935724  0.23657139  0.41417557    -0.19200
H1133       H  0.11728692  0.25426090  0.44346947     0.16500
F1134       F  0.11281202  0.31841740  0.41827630    -0.22900
H1135       H  0.09427613  0.30056297  0.38897537     0.18300
C1136       C  0.05992434  0.26945800  0.38791364     0.26300
C1137       C  0.04371519  0.25749933  0.38183752    -0.11400
C1138       C  0.04736341  0.23825219  0.37398806    -0.25400
C1139       C  0.06727650  0.23234627  0.36942712     0.37200
C1140       C  0.08342720  0.24438507  0.37522684    -0.27100
F1141       F  0.05601294  0.28676189  0.39808993    -0.19200
H1142       H  0.02844707  0.26237371  0.38517016     0.16500
F1143       F  0.07116452  0.21417845  0.36087070    -0.22900
H1144       H  0.09869840  0.23878089  0.37330408     0.18300
C1145       C  0.89778994  0.21388024  0.40142944    -0.26900
C1146       C  0.89711532  0.23486403  0.40328311     0.06700
C1147       C  0.91166887  0.24681292  0.39347512     0.26300
C1148       C  0.92783885  0.23767030  0.38368224    -0.11400
C1149       C  0.92979842  0.21659678  0.38384699    -0.25400
C1150       C  0.91398376  0.20470732  0.39174629     0.37100
C1151       C  0.88464216  0.24381560  0.41912297     0.06700
F1152       F  0.91163621  0.26719766  0.39542895    -0.19200
H1153       H  0.93966154  0.24715006  0.37750637     0.16500
F1154       F  0.91485979  0.18423609  0.39162691    -0.22900
H1155       H  0.88661345  0.20455846  0.40892616     0.18300
C1156       C  0.87277133  0.26090696  0.41522704     0.26300
C1157       C  0.86597010  0.27262950  0.43119303    -0.11400
C1158       C  0.87116758  0.26748808  0.45113155    -0.25400
C1159       C  0.88106481  0.24908002  0.45503806     0.37200
C1160       C  0.88776605  0.23735759  0.43905620    -0.27100
F1161       F  0.86910715  0.26703362  0.39601407    -0.19200
H1162       H  0.85792638  0.28651006  0.42780442     0.16500
F1163       F  0.88537554  0.24300497  0.47414633    -0.22900
H1164       H  0.89685339  0.22407414  0.44226796     0.18300
C1165       C  0.09914820  0.20253299  0.59803428    -0.26900
C1166       C  0.10170651  0.22352179  0.59769010     0.06700
C1167       C  0.08832933  0.23576962  0.60876845     0.26300
C1168       C  0.07141586  0.22734500  0.61787861    -0.11400
C1169       C  0.06737289  0.20671161  0.61589779    -0.25400
C1170       C  0.08211347  0.19408239  0.60709953     0.37100
C1171       C  0.11439754  0.23287984  0.58197521     0.06700
F1172       F  0.09000878  0.25617482  0.60862520    -0.19200
H1173       H  0.06061052  0.23735531  0.62503084     0.16500
F1174       F  0.07938235  0.17383979  0.60575615    -0.22900
H1175       H  0.10943951  0.19285442  0.58975925     0.18300
C1176       C  0.12583457  0.25015066  0.58613725     0.26300
C1177       C  0.13102577  0.26326910  0.57051204    -0.11400
C1178       C  0.12539375  0.25898606  0.55057739    -0.25400
C1179       C  0.11655299  0.24032766  0.54613414     0.37200
C1180       C  0.11101970  0.22739745  0.56180921    -0.27100
F1181       F  0.13032884  0.25522171  0.60542068    -0.19200
H1182       H  0.13842398  0.27736807  0.57412439     0.16500
F1183       F  0.11116827  0.23561969  0.52698976    -0.22900
H1184       H  0.10223384  0.21411307  0.55823819     0.18300
C1185       C  0.93729885  0.26781054  0.60889392    -0.26900
C1186       C  0.91748357  0.26240295  0.61421817     0.06700
C1187       C  0.91426185  0.24616520  0.62740927     0.26300
C1188       C  0.93048496  0.23400919  0.63318294    -0.11400
C1189       C  0.95000291  0.23794155  0.62578201    -0.25400
C1190       C  0.95356655  0.25560856  0.61462719     0.37100
C1191       C  0.90085213  0.26992554  0.60161039     0.06700
F1192       F  0.89523749  0.24092255  0.63299093    -0.19200
H1193       H  0.92756459  0.22063770  0.64212307     0.16500
F1194       F  0.97221991  0.25967932  0.60714664    -0.22900
H1195       H  0.93993302  0.28016301  0.59851097     0.18300
C1196       C  0.89669388  0.29061627  0.60005778     0.26300
C1197       C  0.88504310  0.29789439  0.58402612    -0.11400
C1198       C  0.87811199  0.28459990  0.56913494    -0.25400
C1199       C  0.88104189  0.26377366  0.57153172     0.37200
C1200       C  0.89212905  0.25647110  0.58786451    -0.27100
F1201       F  0.90512941  0.30383421  0.61312310    -0.19200
H1202       H  0.88300775  0.31394430  0.58228308     0.16500
F1203       F  0.87430698  0.25063147  0.55743470    -0.22900
H1204       H  0.89541748  0.24055180  0.58876251     0.18300
C1205       C  0.97676888  0.17661218  0.52321222    -0.26900
C1206       C  0.99368756  0.16903948  0.51269661     0.06700
C1207       C  0.00988195  0.16129168  0.52418998     0.26300
C1208       C  0.00919869  0.16125121  0.54540008    -0.11400
C1209       C  0.99241485  0.16897308  0.55603029    -0.25400
C1210       C  0.97611168  0.17669913  0.54451660     0.37100
C1211       C  0.99460941  0.16951697  0.48991564     0.06700
F1212       F  0.02634037  0.15335419  0.51490109    -0.19200
H1213       H  0.02204363  0.15514826  0.55354845     0.16500
F1214       F  0.95965175  0.18471635  0.55374566    -0.22900
H1215       H  0.96412205  0.18288533  0.51487689     0.18300
C1216       C  0.97887418  0.16167805  0.47798886     0.26300
C1217       C  0.97993302  0.16234309  0.45673609    -0.11400
C1218       C  0.99669847  0.17080725  0.44660118    -0.25400
C1219       C  0.01251109  0.17850696  0.45861604     0.37200
C1220       C  0.01142673  0.17781981  0.47985156    -0.27100
F1221       F  0.96262815  0.15289709  0.48688263    -0.19200
H1222       H  0.96749574  0.15614402  0.44816869     0.16500
F1223       F  0.02897166  0.18706860  0.44992401    -0.22900
H1224       H  0.02374564  0.18412594  0.48851609     0.18300
C1225       C  0.24651262  0.21940685  0.50446018    -0.26900
C1226       C  0.25259906  0.23757296  0.49539215     0.06700
C1227       C  0.27256050  0.23887099  0.48799978     0.26300
C1228       C  0.28576422  0.22201256  0.48910120    -0.11400
C1229       C  0.27928701  0.20352244  0.49753243    -0.25400
C1230       C  0.25949827  0.20271088  0.50556452     0.37100
C1231       C  0.23714254  0.25402854  0.49256136     0.06700
F1232       F  0.27898245  0.25606522  0.47888570    -0.19200
H1233       H  0.30077024  0.22322272  0.48276529     0.16500
F1234       F  0.25243020  0.18563236  0.51445091    -0.22900
H1235       H  0.23135619  0.21800851  0.51042488     0.18300
C1236       C  0.21933971  0.24982340  0.48186829     0.26300
C1237       C  0.20315107  0.26347525  0.48174622    -0.11400
C1238       C  0.20396651  0.28187372  0.49231363    -0.25400
C1239       C  0.22230529  0.28678445  0.50198759     0.37200
C1240       C  0.23870709  0.27294064  0.50211279    -0.27100
F1241       F  0.21731839  0.23204028  0.47201014    -0.19200
H1242       H  0.18953184  0.25921430  0.47380371     0.16500
F1243       F  0.22399719  0.30431278  0.51230064    -0.22900
H1244       H  0.25223773  0.27657370  0.51049674     0.18300
C1245       C  0.34134642  0.97621532  0.51689651    -0.26900
C1246       C  0.33520147  0.98777965  0.49999152     0.06700
C1247       C  0.32920118  0.97684423  0.48267219     0.26300
C1248       C  0.32925155  0.95551362  0.48248562    -0.11400
C1249       C  0.33493788  0.94405218  0.49953459    -0.25400
C1250       C  0.34102248  0.95487585  0.51681849     0.37100
C1251       C  0.33504324  0.01090242  0.50046896     0.06700
F1252       F  0.32246578  0.98663352  0.46596167    -0.19200
H1253       H  0.32432810  0.94792446  0.46892286     0.16500
F1254       F  0.34662694  0.94490084  0.53385024    -0.22900
H1255       H  0.34667835  0.98365800  0.53036201     0.18300
C1256       C  0.32985346  0.02194378  0.51802077     0.26300
C1257       C  0.32957003  0.04332308  0.51799214    -0.11400
C1258       C  0.33399434  0.05464164  0.50046934    -0.25400
C1259       C  0.33910597  0.04366103  0.48296477     0.37200
C1260       C  0.33995947  0.02236518  0.48313673    -0.27100
F1261       F  0.32427799  0.01220574  0.53517153    -0.19200
H1262       H  0.32532709  0.05105352  0.53172277     0.16500
F1263       F  0.34344852  0.05346398  0.46549239    -0.22900
H1264       H  0.34472963  0.01487663  0.46946693     0.18300
C1265       C  0.24623392  0.11072622  0.42064507    -0.26900
C1266       C  0.25777267  0.10500115  0.40383207     0.06700
C1267       C  0.27838798  0.10953397  0.40310143     0.26300
C1268       C  0.28786292  0.11697537  0.42014140    -0.11400
C1269       C  0.27685260  0.11996729  0.43804280    -0.25400
C1270       C  0.25570821  0.11821653  0.43776768     0.37100
C1271       C  0.24935873  0.08999302  0.39013140     0.06700
F1272       F  0.28968343  0.10471400  0.38671211    -0.19200
H1273       H  0.30409287  0.11899911  0.41970137     0.16500
F1274       F  0.24443750  0.12182719  0.45447824    -0.22900
H1275       H  0.23022723  0.10742123  0.42132429     0.18300
C1276       C  0.25820537  0.07065977  0.38952359     0.26300
C1277       C  0.24742120  0.05457056  0.38172255    -0.11400
C1278       C  0.22778269  0.05755102  0.37446583    -0.25400
C1279       C  0.21962719  0.07717685  0.37346571     0.37200
C1280       C  0.23039898  0.09329626  0.38137139    -0.27100
F1281       F  0.27629080  0.06684307  0.39846801    -0.19200
H1282       H  0.25395271  0.03957057  0.38246373     0.16500
F1283       F  0.20052571  0.08050553  0.36673531    -0.22900
H1284       H  0.22336877  0.10806898  0.38199482     0.18300
C1285       C  0.26091450  0.88196461  0.41548524    -0.26900
C1286       C  0.24405756  0.89406557  0.41929744     0.06700
C1287       C  0.23693972  0.89642090  0.43910563     0.26300
C1288       C  0.24793867  0.88833524  0.45518774    -0.11400
C1289       C  0.26613772  0.87816723  0.45146517    -0.25400
C1290       C  0.27191465  0.87395080  0.43146674     0.37100
C1291       C  0.23698562  0.90779535  0.40355001     0.06700
F1292       F  0.22077306  0.90846677  0.44297640    -0.19200
H1293       H  0.24332583  0.89172323  0.47047120     0.16500
F1294       F  0.28913086  0.86351650  0.42739665    -0.22900
H1295       H  0.26647083  0.88014100  0.40023247     0.18300
C1296       C  0.24914828  0.92428421  0.39818366     0.26300
C1297       C  0.24125445  0.93968622  0.38628889    -0.11400
C1298       C  0.22120039  0.93876401  0.37965709    -0.25400
C1299       C  0.20951941  0.92149823  0.38377977     0.37200
C1300       C  0.21741212  0.90612912  0.39586342    -0.27100
F1301       F  0.26801744  0.92632999  0.40593967    -0.19200
H1302       H  0.25037048  0.95293389  0.38335144     0.16500
F1303       F  0.18988282  0.92041675  0.37795609    -0.22900
H1304       H  0.20794426  0.89350392  0.40013208     0.18300
C1305       C  0.08273945  0.11549978  0.36762410    -0.26900
C1306       C  0.07977397  0.09975154  0.35402495     0.06700
C1307       C  0.06290133  0.09990125  0.34127921     0.26300
C1308       C  0.04906732  0.11584505  0.34217322    -0.11400
C1309       C  0.05187507  0.13166064  0.35593518    -0.25400
C1310       C  0.06895099  0.13137715  0.36862784     0.37100
C1311       C  0.09425836  0.08302928  0.35371487     0.06700
F1312       F  0.05963170  0.08443517  0.32836643    -0.19200
H1313       H  0.03590040  0.11556094  0.33246865     0.16500
F1314       F  0.07242193  0.14645063  0.38195091    -0.22900
H1315       H  0.09576851  0.11542060  0.37753577     0.18300
C1316       C  0.11000972  0.08272411  0.33960846     0.26300
C1317       C  0.12482306  0.06768937  0.34067819    -0.11400
C1318       C  0.12406825  0.05282214  0.35588464    -0.25400
C1319       C  0.10784285  0.05305162  0.36973149     0.37200
C1320       C  0.09315879  0.06811197  0.36861907    -0.27100
F1321       F  0.11135824  0.09733990  0.32526338    -0.19200
H1322       H  0.13708856  0.06794492  0.32985007     0.16500
F1323       F  0.10624202  0.03899672  0.38460621    -0.22900
H1324       H  0.08104782  0.06836401  0.37964040     0.18300
C1325       C  0.27145357  0.11274791  0.59479214    -0.26900
C1326       C  0.25195714  0.10518429  0.59162205     0.06700
C1327       C  0.24322722  0.10678745  0.57229036     0.26300
C1328       C  0.25443197  0.11424475  0.55622736    -0.11400
C1329       C  0.27464229  0.11973840  0.55893157    -0.25400
C1330       C  0.28284414  0.11986899  0.57854355     0.37100
C1331       C  0.24211049  0.09231585  0.60691235     0.06700
F1332       F  0.22463398  0.09916223  0.56832500    -0.19200
H1333       H  0.24771686  0.11416039  0.54133340     0.16500
F1334       F  0.30209744  0.12600297  0.58191033    -0.22900
H1335       H  0.27828193  0.11201838  0.60961919     0.18300
C1336       C  0.25251450  0.07549386  0.61486539     0.26300
C1337       C  0.24169264  0.05894843  0.62204391    -0.11400
C1338       C  0.22050471  0.05901658  0.62129463    -0.25400
C1339       C  0.21028200  0.07699336  0.61609693     0.37200
C1340       C  0.22113002  0.09363945  0.60939860    -0.27100
F1341       F  0.27293726  0.07398339  0.61358862    -0.19200
H1342       H  0.24992752  0.04554163  0.62665930     0.16500
F1343       F  0.18978535  0.07810544  0.61595889    -0.22900
H1344       H  0.21293432  0.10680350  0.60404400     0.18300
C1345       C  0.26669192  0.87838589  0.59573606    -0.26900
C1346       C  0.27066961  0.89818997  0.60211736     0.06700
C1347       C  0.28688758  0.90883807  0.59338821     0.26300
C1348       C  0.29742361  0.90056763  0.57734365    -0.11400
C1349       C  0.29148107  0.88207624  0.56924869    -0.25400
C1350       C  0.27665148  0.87054558  0.57896723     0.37100
C1351       C  0.25541411  0.90937827  0.61386667     0.06700
F1352       F  0.29099958  0.92819520  0.59852572    -0.19200
H1353       H  0.30896302  0.90958445  0.56996817     0.16500
F1354       F  0.27119591  0.85225002  0.57169997    -0.22900
H1355       H  0.25463632  0.86969958  0.60262322     0.18300
C1356       C  0.23508276  0.90878922  0.60771567     0.26300
C1357       C  0.22175863  0.92366355  0.61392659    -0.11400
C1358       C  0.22848915  0.93978770  0.62577954    -0.25400
C1359       C  0.24817544  0.93927244  0.63369954     0.37200
C1360       C  0.26143299  0.92388915  0.62801552    -0.27100
F1361       F  0.22850274  0.89538460  0.59379058    -0.19200
H1362       H  0.20654116  0.92336839  0.60794331     0.16500
F1363       F  0.25498588  0.95413857  0.64590889    -0.22900
H1364       H  0.27687938  0.92425856  0.63338052     0.18300
C1365       C  0.06416517  0.09643225  0.66984253    -0.26900
C1366       C  0.06584827  0.08265610  0.65390379     0.06700
C1367       C  0.05205797  0.08384537  0.63785147     0.26300
C1368       C  0.03810305  0.09959416  0.63687959    -0.11400
C1369       C  0.03750055  0.11445784  0.65187780    -0.25400
C1370       C  0.05007692  0.11229421  0.66889118     0.37100
C1371       C  0.08355701  0.06902125  0.65245476     0.06700
F1372       F  0.05287632  0.07040272  0.62249695    -0.19200
H1373       H  0.02832339  0.10070086  0.62377395     0.16500
F1374       F  0.04999896  0.12636301  0.68367995    -0.22900
H1375       H  0.07470848  0.09572014  0.68236395     0.18300
C1376       C  0.09649231  0.07064582  0.63574822     0.26300
C1377       C  0.11312403  0.05788538  0.63389054    -0.11400
C1378       C  0.11747169  0.04320781  0.64866894    -0.25400
C1379       C  0.10470981  0.04181139  0.66568376     0.37200
C1380       C  0.08791869  0.05470913  0.66752912    -0.27100
F1381       F  0.09324326  0.08491682  0.62133073    -0.19200
H1382       H  0.12272593  0.05965797  0.62073719     0.16500
F1383       F  0.10824641  0.02791170  0.68036540    -0.22900
H1384       H  0.07813613  0.05336335  0.68062104     0.18300
C1385       C  0.18867153  0.98901183  0.47787165    -0.26900
C1386       C  0.17115070  0.99532186  0.48821211     0.06700
C1387       C  0.15457322  0.00189159  0.47641198     0.26300
C1388       C  0.15569115  0.00235746  0.45512684    -0.11400
C1389       C  0.17338609  0.99646694  0.44481174    -0.25400
C1390       C  0.18982978  0.98954187  0.45662280     0.37100
C1391       C  0.17040060  0.99526872  0.51110373     0.06700
F1392       F  0.13704508  0.00753158  0.48542923    -0.19200
H1393       H  0.14266701  0.00759452  0.44668838     0.16500
F1394       F  0.20707558  0.98298375  0.44767294    -0.22900
H1395       H  0.20176008  0.98392329  0.48630383     0.18300
C1396       C  0.17716833  0.97855119  0.52259990     0.26300
C1397       C  0.17657292  0.97881676  0.54388423    -0.11400
C1398       C  0.16949626  0.99579900  0.55457142    -0.25400
C1399       C  0.16285991  0.01257616  0.54306251     0.37200
C1400       C  0.16321252  0.01220034  0.52176716    -0.27100
F1401       F  0.18405972  0.96169427  0.51328220    -0.19200
H1402       H  0.18192786  0.96564234  0.55205608     0.16500
F1403       F  0.15591888  0.02943569  0.55232804    -0.22900
H1404       H  0.15815118  0.02546238  0.51355221     0.18300
C1405       C  0.83827247  0.39418870  0.42115071    -0.26900
C1406       C  0.85530956  0.40636169  0.41751810     0.06700
C1407       C  0.87260235  0.40335186  0.42952254     0.26300
C1408       C  0.87293483  0.38836408  0.44439894    -0.11400
C1409       C  0.85616533  0.37578421  0.44775216    -0.25400
C1410       C  0.83863035  0.37905047  0.43607836     0.37100
C1411       C  0.85534767  0.42185596  0.40106413     0.06700
F1412       F  0.88957080  0.41439627  0.42641670    -0.19200
H1413       H  0.88667846  0.38636815  0.45308825     0.16500
F1414       F  0.82176752  0.36785592  0.43919030    -0.22900
H1415       H  0.82457784  0.39646156  0.41244530     0.18300
C1416       C  0.84861790  0.41722124  0.38147320     0.26300
C1417       C  0.85011418  0.43151676  0.36587161    -0.11400
C1418       C  0.85863826  0.45058168  0.36934078    -0.25400
C1419       C  0.86497500  0.45535590  0.38900657     0.37200
C1420       C  0.86314120  0.44122306  0.40463949    -0.27100
F1421       F  0.84142805  0.39858613  0.37716558    -0.19200
H1422       H  0.84514408  0.42742323  0.35085269     0.16500
F1423       F  0.87272643  0.47379712  0.39322928    -0.22900
H1424       H  0.86799646  0.44542800  0.41966224     0.18300
C1425       C  0.12975406  0.40714718  0.43728618    -0.26900
C1426       C  0.14899669  0.41374721  0.43166346     0.06700
C1427       C  0.16611462  0.40475609  0.44050778     0.26300
C1428       C  0.16388953  0.38866257  0.45412457    -0.11400
C1429       C  0.14457190  0.38123844  0.45895405    -0.25400
C1430       C  0.12745230  0.39105981  0.45066772     0.37100
C1431       C  0.15071655  0.42834245  0.41488790     0.06700
F1432       F  0.18492275  0.41127142  0.43562671    -0.19200
H1433       H  0.17731875  0.38159660  0.46036046     0.16500
F1434       F  0.10838480  0.38476771  0.45482193    -0.22900
H1435       H  0.11640524  0.41388407  0.43050022     0.18300
C1436       C  0.15881215  0.42211929  0.39636384     0.26300
C1437       C  0.15739227  0.43465251  0.37943186    -0.11400
C1438       C  0.14768076  0.45349459  0.38062681    -0.25400
C1439       C  0.14019807  0.46001306  0.39938497     0.37200
C1440       C  0.14165999  0.44745169  0.41634054    -0.27100
F1441       F  0.16683591  0.40335782  0.39434327    -0.19200
H1442       H  0.16311660  0.42920937  0.36513045     0.16500
F1443       F  0.13133921  0.47840950  0.40130099    -0.22900
H1444       H  0.13521518  0.45238183  0.43052439     0.18300
C1445       C  0.97991862  0.50821681  0.33350343    -0.26900
C1446       C  0.99072037  0.50283310  0.31592200     0.06700
C1447       C  0.97916487  0.49829877  0.29859821     0.26300
C1448       C  0.95786501  0.49943396  0.29889488    -0.11400
C1449       C  0.94707867  0.50461373  0.31650062    -0.25400
C1450       C  0.95854618  0.50900827  0.33387885     0.37100
C1451       C  0.01372956  0.50142198  0.31607684     0.06700
F1452       F  0.98826915  0.49179785  0.28148225    -0.19200
H1453       H  0.94973761  0.49569879  0.28526625     0.16500
F1454       F  0.94918933  0.51432156  0.35127099    -0.22900
H1455       H  0.98806514  0.51196523  0.34711199     0.18300
C1456       C  0.02574665  0.50814656  0.29970299     0.26300
C1457       C  0.04701914  0.50635123  0.30014322    -0.11400
C1458       C  0.05724916  0.49843675  0.31708604    -0.25400
C1459       C  0.04535113  0.49204690  0.33358178     0.37200
C1460       C  0.02403965  0.49339548  0.33297502    -0.27100
F1461       F  0.01714004  0.51734076  0.28351165    -0.19200
H1462       H  0.05557394  0.51174142  0.28730757     0.16500
F1463       F  0.05425031  0.48406975  0.35024862    -0.22900
H1464       H  0.01555171  0.48791179  0.34581110     0.18300
C1465       C  0.09537836  0.37170979  0.24030091    -0.26900
C1466       C  0.09275964  0.38607875  0.25540723     0.06700
C1467       C  0.07325379  0.39224766  0.26099442     0.26300
C1468       C  0.05662084  0.38554747  0.25021411    -0.11400
C1469       C  0.05923700  0.37255937  0.23378568    -0.25400
C1470       C  0.07865983  0.36462932  0.22971864     0.37100
C1471       C  0.10979864  0.39814670  0.26223707     0.06700
F1472       F  0.07050746  0.40643119  0.27545627    -0.19200
H1473       H  0.04185887  0.39157437  0.25394792     0.16500
F1474       F  0.08178462  0.35120552  0.21464397    -0.22900
H1475       H  0.11042228  0.36693815  0.23592641     0.18300
C1476       C  0.11481173  0.39845911  0.28272881     0.26300
C1477       C  0.12477733  0.41510714  0.29058610    -0.11400
C1478       C  0.12910743  0.43172348  0.27813261    -0.25400
C1479       C  0.12604051  0.43043842  0.25727063     0.37200
C1480       C  0.11664771  0.41349399  0.24932668    -0.27100
F1481       F  0.10793819  0.38388931  0.29542218    -0.19200
H1482       H  0.12710193  0.41592045  0.30673066     0.16500
F1483       F  0.13063571  0.44615349  0.24489536    -0.22900
H1484       H  0.11265456  0.41341592  0.23348322     0.18300
C1485       C  0.89503727  0.43542274  0.23349516    -0.26900
C1486       C  0.89255733  0.41600096  0.24152169     0.06700
C1487       C  0.88050020  0.41293968  0.25854768     0.26300
C1488       C  0.87232955  0.42945575  0.26848472    -0.11400
C1489       C  0.87662963  0.44916485  0.26178597    -0.25400
C1490       C  0.88727351  0.45202582  0.24364444     0.37100
C1491       C  0.90676204  0.40045186  0.23530690     0.06700
F1492       F  0.87825121  0.39418630  0.26655561    -0.19200
H1493       H  0.86409281  0.42681452  0.28233481     0.16500
F1494       F  0.89151751  0.47078367  0.23651858    -0.22900
H1495       H  0.90461345  0.43785927  0.22048260     0.18300
C1496       C  0.90686603  0.39342429  0.21547786     0.26300
C1497       C  0.92356467  0.38280907  0.20840767    -0.11400
C1498       C  0.94045702  0.37985440  0.22092847    -0.25400
C1499       C  0.93982493  0.38595840  0.24110821     0.37200
C1500       C  0.92287431  0.39598489  0.24831777    -0.27100
F1501       F  0.89155327  0.39812119  0.20265634    -0.19200
H1502       H  0.92395828  0.37840117  0.19274902     0.16500
F1503       F  0.95599590  0.38332405  0.25345514    -0.22900
H1504       H  0.92301202  0.40173905  0.26353301     0.18300
C1505       C  0.97801861  0.24581934  0.27576136    -0.26900
C1506       C  0.99301663  0.24395173  0.26082262     0.06700
C1507       C  0.00649993  0.22736528  0.26239762     0.26300
C1508       C  0.00557903  0.21388767  0.27898719    -0.11400
C1509       C  0.99120775  0.21656378  0.29440862    -0.25400
C1510       C  0.97698704  0.23233442  0.29211380     0.37100
C1511       C  0.99501401  0.25994756  0.24455196     0.06700
F1512       F  0.02074364  0.22424837  0.24801369    -0.19200
H1513       H  0.01669363  0.20191989  0.28021268     0.16500
F1514       F  0.96223739  0.23509604  0.30607820    -0.22900
H1515       H  0.96746530  0.25831549  0.27534079     0.18300
C1516       C  0.97788437  0.26869618  0.23518598     0.26300
C1517       C  0.97988076  0.28481607  0.22143730    -0.11400
C1518       C  0.99894954  0.29278526  0.21637605    -0.25400
C1519       C  0.01613777  0.28372125  0.22531759     0.37200
C1520       C  0.01412784  0.26765288  0.23918033    -0.27100
F1521       F  0.95905604  0.26169628  0.23922788    -0.19200
H1522       H  0.96630417  0.29128578  0.21495752     0.16500
F1523       F  0.03495276  0.29076487  0.22127653    -0.22900
H1524       H  0.02762328  0.26172845  0.24628974     0.18300
C1525       C  0.09655746  0.60636341  0.24193990    -0.26900
C1526       C  0.11023947  0.59724910  0.22857000     0.06700
C1527       C  0.10766541  0.59975676  0.20777844     0.26300
C1528       C  0.09042365  0.60937512  0.20049295    -0.11400
C1529       C  0.07535288  0.61623708  0.21385021    -0.25400
C1530       C  0.07914519  0.61576738  0.23469859     0.37100
C1531       C  0.12332295  0.58114867  0.23642102     0.06700
F1532       F  0.12083313  0.59125448  0.19458642    -0.19200
H1533       H  0.08820879  0.61001148  0.18431421     0.16500
F1534       F  0.06535322  0.62270752  0.24816090    -0.22900
H1535       H  0.09827409  0.60440094  0.25809365     0.18300
C1536       C  0.13546887  0.58454735  0.25332914     0.26300
C1537       C  0.14125420  0.56836197  0.26548250    -0.11400
C1538       C  0.13485619  0.54868730  0.26090721    -0.25400
C1539       C  0.12506495  0.54510173  0.24247138     0.37200
C1540       C  0.11935933  0.56130955  0.23032754    -0.27100
F1541       F  0.13998424  0.60362219  0.25910406    -0.19200
H1542       H  0.14933697  0.57150125  0.27932765     0.16500
F1543       F  0.11956959  0.52620688  0.23692691    -0.22900
H1544       H  0.10998033  0.55842599  0.21724526     0.18300
C1545       C  0.89535924  0.58689267  0.24743332    -0.26900
C1546       C  0.90192540  0.60123275  0.26146714     0.06700
C1547       C  0.89464083  0.60058035  0.28127982     0.26300
C1548       C  0.88259762  0.58447177  0.28746552    -0.11400
C1549       C  0.87833980  0.56869281  0.27407000    -0.25400
C1550       C  0.88381250  0.57050861  0.25373146     0.37100
C1551       C  0.91955934  0.61347708  0.25614255     0.06700
F1552       F  0.90068806  0.61443388  0.29498778    -0.19200
H1553       H  0.87843767  0.58327888  0.30322549     0.16500
F1554       F  0.87937889  0.55571065  0.24038724    -0.22900
H1555       H  0.90088540  0.58728494  0.23205387     0.18300
C1556       C  0.93854402  0.60825238  0.26426236     0.26300
C1557       C  0.95623252  0.61402714  0.25429878    -0.11400
C1558       C  0.95495019  0.62480603  0.23614629    -0.25400
C1559       C  0.93604673  0.63199467  0.22943580     0.37200
C1560       C  0.91845247  0.62629465  0.23939205    -0.27100
F1561       F  0.93989954  0.59537998  0.28020252    -0.19200
H1562       H  0.97065132  0.60833142  0.25958322     0.16500
F1563       F  0.93448428  0.64298735  0.21216422    -0.22900
H1564       H  0.90393469  0.63031141  0.23297124     0.18300
C1565       C  0.02243161  0.52158181  0.17232110    -0.26900
C1566       C  0.00393119  0.51105066  0.17198743     0.06700
C1567       C  0.98599801  0.52266478  0.17106881     0.26300
C1568       C  0.98664874  0.54394172  0.17068242    -0.11400
C1569       C  0.00514730  0.55445499  0.17101763    -0.25400
C1570       C  0.02309151  0.54286530  0.17176496     0.37100
C1571       C  0.00348284  0.48816508  0.17282783     0.06700
F1572       F  0.96771985  0.51349498  0.17011536    -0.19200
H1573       H  0.97256027  0.55221227  0.17004136     0.16500
F1574       F  0.04137281  0.55204318  0.17261483    -0.22900
H1575       H  0.03649656  0.51332827  0.17343251     0.18300
C1576       C  0.01666069  0.47627646  0.16097573     0.26300
C1577       C  0.01617539  0.45498712  0.16197314    -0.11400
C1578       C  0.00289036  0.44483397  0.17511115    -0.25400
C1579       C  0.98968536  0.45663870  0.18692802     0.37200
C1580       C  0.98993534  0.47791089  0.18571291    -0.27100
F1581       F  0.02986850  0.48519738  0.14809267    -0.19200
H1582       H  0.02650390  0.44641412  0.15270900     0.16500
F1583       F  0.97615772  0.44758902  0.19939771    -0.22900
H1584       H  0.97970998  0.48637554  0.19517408     0.18300
C1585       C  0.25950491  0.51187451  0.22941712    -0.26900
C1586       C  0.25931876  0.49540680  0.24290577     0.06700
C1587       C  0.27298997  0.47939306  0.23923520     0.26300
C1588       C  0.28591015  0.47972454  0.22229559    -0.11400
C1589       C  0.28589655  0.49616080  0.20873470    -0.25400
C1590       C  0.27260175  0.51237785  0.21274849     0.37100
C1591       C  0.24402828  0.49466498  0.25982000     0.06700
F1592       F  0.27402498  0.46343265  0.25209890    -0.19200
H1593       H  0.29593476  0.46703866  0.21976612     0.16500
F1594       F  0.27143963  0.52842133  0.19999346    -0.22900
H1595       H  0.24893271  0.52421736  0.23133428     0.18300
C1596       C  0.23916147  0.51195700  0.27124499     0.26300
C1597       C  0.22313018  0.51167121  0.28520662    -0.11400
C1598       C  0.21163818  0.49410790  0.28851057    -0.25400
C1599       C  0.21722263  0.47652246  0.27791269     0.37200
C1600       C  0.23303742  0.47690264  0.26373429    -0.27100
F1601       F  0.24978486  0.52928538  0.26884335    -0.19200
H1602       H  0.21940881  0.52543900  0.29312690     0.16500
F1603       F  0.20664580  0.45915985  0.28027332    -0.22900
H1604       H  0.23603818  0.46340039  0.25511503     0.18300
C1605       C  0.34275951  0.50201289  0.02417565    -0.26900
C1606       C  0.32699630  0.49401448  0.01239624     0.06700
C1607       C  0.31034571  0.48554553  0.02269095     0.26300
C1608       C  0.30927276  0.48573271  0.04395533    -0.11400
C1609       C  0.32494539  0.49391011  0.05576188    -0.25400
C1610       C  0.34189839  0.50180726  0.04546108     0.37100
C1611       C  0.32775426  0.49486236  0.98956083     0.06700
F1612       F  0.29471120  0.47761867  0.01216913    -0.19200
H1613       H  0.29604898  0.47941285  0.05122034     0.16500
F1614       F  0.35749370  0.50988691  0.05591575    -0.22900
H1615       H  0.35590131  0.50842350  0.01684951     0.18300
C1616       C  0.33168315  0.51305310  0.97911376     0.26300
C1617       C  0.33138308  0.51389682  0.95782880    -0.11400
C1618       C  0.32749789  0.49660349  0.94614409    -0.25400
C1619       C  0.32409766  0.47826957  0.95665017     0.37200
C1620       C  0.32410734  0.47752158  0.97793099    -0.27100
F1621       F  0.33519440  0.53027284  0.98949397    -0.19200
H1622       H  0.33411419  0.52825322  0.95047579     0.16500
F1623       F  0.32049422  0.46096488  0.94643637    -0.22900
H1624       H  0.32131250  0.46322038  0.98537727     0.18300
C1625       C  0.21913364  0.60846270  0.09802023    -0.26900
C1626       C  0.23989180  0.60439723  0.09768024     0.06700
C1627       C  0.25159196  0.61114882  0.08128846     0.26300
C1628       C  0.24207900  0.61864307  0.06406196    -0.11400
C1629       C  0.22092154  0.61954326  0.06317452    -0.25400
C1630       C  0.20962568  0.61610360  0.08089876     0.37100
C1631       C  0.24782289  0.58801726  0.11040526     0.06700
F1632       F  0.27183795  0.60780732  0.08073854    -0.19200
H1633       H  0.25116186  0.62187645  0.05084714     0.16500
F1634       F  0.18922229  0.61837025  0.08120549    -0.22900
H1635       H  0.21000444  0.60366121  0.11073013     0.18300
C1636       C  0.26606591  0.59004550  0.12085376     0.26300
C1637       C  0.27611552  0.57287831  0.12784106    -0.11400
C1638       C  0.26822378  0.55350666  0.12423773    -0.25400
C1639       C  0.24915615  0.55167479  0.11520612     0.37200
C1640       C  0.23900809  0.56886348  0.10849616    -0.27100
F1641       F  0.27473477  0.60843116  0.12311681    -0.19200
H1642       H  0.29073652  0.57472440  0.13496821     0.16500
F1643       F  0.24073794  0.53332030  0.11202511    -0.22900
H1644       H  0.22493188  0.56704113  0.10032335     0.18300
C1645       C  0.24938600  0.58769277  0.88360813    -0.26900
C1646       C  0.26177450  0.60333094  0.89073399     0.06700
C1647       C  0.28270932  0.60210718  0.88758087     0.26300
C1648       C  0.29124096  0.58408077  0.88095907    -0.11400
C1649       C  0.27897143  0.56721853  0.87711181    -0.25400
C1650       C  0.25788787  0.56974035  0.87673604     0.37100
C1651       C  0.25356924  0.61665355  0.90654482     0.06700
F1652       F  0.29502299  0.61743196  0.89318868    -0.19200
H1653       H  0.30757401  0.58289562  0.88035609     0.16500
F1654       F  0.24543379  0.55430866  0.87179664    -0.22900
H1655       H  0.23313918  0.58825823  0.88564202     0.18300
C1656       C  0.23379420  0.62425543  0.90502191     0.26300
C1657       C  0.22279170  0.62813392  0.92249946    -0.11400
C1658       C  0.23161808  0.62509216  0.94155297    -0.25400
C1659       C  0.25230260  0.62082514  0.94293148     0.37200
C1660       C  0.26316811  0.61649589  0.92549660    -0.27100
F1661       F  0.22450128  0.62580858  0.88682929    -0.19200
H1662       H  0.20696564  0.63228800  0.92117718     0.16500
F1663       F  0.26138606  0.61840422  0.96112658    -0.22900
H1664       H  0.27841130  0.61067292  0.92719836     0.18300
C1665       C  0.07578273  0.66885227  0.10210472    -0.26900
C1666       C  0.07201530  0.65703251  0.08497411     0.06700
C1667       C  0.05423948  0.64547550  0.08421415     0.26300
C1668       C  0.04187715  0.64382199  0.10115563    -0.11400
C1669       C  0.04657991  0.65423970  0.11883470    -0.25400
C1670       C  0.06300667  0.66762199  0.11893434     0.37100
C1671       C  0.08810851  0.65377809  0.06976875     0.06700
F1672       F  0.04951991  0.63478908  0.06746993    -0.19200
H1673       H  0.02902107  0.63375579  0.10075424     0.16500
F1674       F  0.06771846  0.67805613  0.13583279    -0.22900
H1675       H  0.08938167  0.67783631  0.10304692     0.18300
C1676       C  0.09854318  0.66982121  0.06056809     0.26300
C1677       C  0.11453561  0.66586071  0.04726040    -0.11400
C1678       C  0.12054692  0.64588397  0.04318608    -0.25400
C1679       C  0.10992713  0.62991879  0.05238192     0.37200
C1680       C  0.09397586  0.63389721  0.06545892    -0.27100
F1681       F  0.09330575  0.68923945  0.06441325    -0.19200
H1682       H  0.12248085  0.67843674  0.04048609     0.16500
F1683       F  0.11495939  0.61036032  0.04894078    -0.22900
H1684       H  0.08648533  0.62129242  0.07270531     0.18300
C1685       C  0.23971132  0.37216115  0.09210092    -0.26900
C1686       C  0.25682923  0.38405106  0.08885329     0.06700
C1687       C  0.26523121  0.38547114  0.06948196     0.26300
C1688       C  0.25509706  0.37717457  0.05311224    -0.11400
C1689       C  0.23662007  0.36721535  0.05597822    -0.25400
C1690       C  0.22975643  0.36347023  0.07579653     0.37100
C1691       C  0.26242105  0.39919157  0.10380518     0.06700
F1692       F  0.28189426  0.39690620  0.06611213    -0.19200
H1693       H  0.26092063  0.37986193  0.03808143     0.16500
F1694       F  0.21232008  0.35331359  0.07935274    -0.22900
H1695       H  0.23310638  0.37107202  0.10700610     0.18300
C1696       C  0.25111748  0.41710854  0.10451962     0.26300
C1697       C  0.25860496  0.43376551  0.11468223    -0.11400
C1698       C  0.27747724  0.43279455  0.12426682    -0.25400
C1699       C  0.28787474  0.41417135  0.12517971     0.37200
C1700       C  0.28044184  0.39751329  0.11470655    -0.27100
F1701       F  0.23374813  0.41905794  0.09377132    -0.19200
H1702       H  0.25023562  0.44781551  0.11392084     0.16500
F1703       F  0.30602844  0.41250013  0.13457490    -0.22900
H1704       H  0.28926085  0.38374027  0.11413489     0.18300
C1705       C  0.26578238  0.40776338  0.87825917    -0.26900
C1706       C  0.24688787  0.40946616  0.88748667     0.06700
C1707       C  0.23696836  0.42824776  0.88797938     0.26300
C1708       C  0.24726385  0.44562295  0.88208227    -0.11400
C1709       C  0.26742317  0.44420735  0.87577340    -0.25400
C1710       C  0.27609334  0.42503707  0.87242800     0.37100
C1711       C  0.24128106  0.39424110  0.90242248     0.06700
F1712       F  0.21860172  0.43014637  0.89692103    -0.19200
H1713       H  0.24021774  0.46018504  0.88437965     0.16500
F1714       F  0.29523722  0.42300840  0.86529629    -0.22900
H1715       H  0.27348867  0.39334075  0.87779429     0.18300
C1716       C  0.22244841  0.38475694  0.90190874     0.26300
C1717       C  0.21548188  0.37466693  0.91901120    -0.11400
C1718       C  0.22702599  0.37458243  0.93682939    -0.25400
C1719       C  0.24648041  0.38283530  0.93677471     0.37200
C1720       C  0.25361812  0.39240471  0.91954463    -0.27100
F1721       F  0.21033199  0.38650254  0.88548295    -0.19200
H1722       H  0.20038762  0.36836669  0.91881907     0.16500
F1723       F  0.25807375  0.38269087  0.95365602    -0.22900
H1724       H  0.26815805  0.39988675  0.92012449     0.18300
C1725       C  0.07894942  0.33362687  0.10800754    -0.26900
C1726       C  0.08466227  0.35085407  0.09699264     0.06700
C1727       C  0.07599136  0.36960672  0.10174590     0.26300
C1728       C  0.06185286  0.37105114  0.11714439    -0.11400
C1729       C  0.05616438  0.35393299  0.12829476    -0.25400
C1730       C  0.06482591  0.33511118  0.12363094     0.37100
C1731       C  0.09983240  0.34953263  0.08073933     0.06700
F1732       F  0.08159670  0.38669325  0.09187237    -0.19200
H1733       H  0.05555377  0.38577251  0.12054679     0.16500
F1734       F  0.05933677  0.31815542  0.13378165    -0.22900
H1735       H  0.08531516  0.31899059  0.10437866     0.18300
C1736       C  0.11870588  0.34033796  0.08410927     0.26300
C1737       C  0.13356176  0.34092434  0.06915285    -0.11400
C1738       C  0.12995872  0.35098512  0.05079593    -0.25400
C1739       C  0.11088873  0.35986346  0.04735856     0.37200
C1740       C  0.09594725  0.35883941  0.06210255    -0.27100
F1741       F  0.12315149  0.33176680  0.10220826    -0.19200
H1742       H  0.14819679  0.33415298  0.07225764     0.16500
F1743       F  0.10666505  0.36972224  0.02986004    -0.22900
H1744       H  0.08136095  0.36577974  0.05911954     0.18300
C1745       C  0.19088760  0.47327133  0.01070035    -0.26900
C1746       C  0.17427115  0.48314267  0.00168623     0.06700
C1747       C  0.15937242  0.47101553  0.99261323     0.26300
C1748       C  0.16118243  0.44976674  0.99244147    -0.11400
C1749       C  0.17808271  0.43986924  0.00095018    -0.25400
C1750       C  0.19291604  0.45204142  0.01020068     0.37100
C1751       C  0.17299224  0.50595732  0.00108111     0.06700
F1752       F  0.14285878  0.47972329  0.98406953    -0.19200
H1753       H  0.14942846  0.44103584  0.98527579     0.16500
F1754       F  0.20936581  0.44345454  0.01900056    -0.22900
H1755       H  0.20262150  0.48209125  0.01779321     0.18300
C1756       C  0.17341132  0.51763578  0.01879826     0.26300
C1757       C  0.17296180  0.53895556  0.01784856    -0.11400
C1758       C  0.17229226  0.54942249  0.99923051    -0.25400
C1759       C  0.17157034  0.53762022  0.98153090     0.37200
C1760       C  0.17180604  0.51632074  0.98252617    -0.27100
F1761       F  0.17394873  0.50842863  0.03711736    -0.19200
H1762       H  0.17340024  0.54731128  0.03183079     0.16500
F1763       F  0.17067294  0.54658386  0.96312074    -0.22900
H1764       H  0.17146192  0.50783974  0.96861623     0.18300
C1765       C  0.43627209  0.41118703  0.85692205    -0.26900
C1766       C  0.42103871  0.40917367  0.84238192     0.06700
C1767       C  0.42273952  0.39401319  0.82772974     0.26300
C1768       C  0.43893051  0.38037966  0.82843586    -0.11400
C1769       C  0.45323161  0.38148949  0.84399113    -0.25400
C1770       C  0.45210879  0.39735402  0.85792404     0.37100
C1771       C  0.40272023  0.42183512  0.84400964     0.06700
F1772       F  0.40796210  0.39137263  0.81382944    -0.19200
H1773       H  0.43941804  0.36802738  0.81778398     0.16500
F1774       F  0.46580505  0.39891760  0.87307668    -0.22900
H1775       H  0.43534638  0.42298855  0.86816015     0.18300
C1776       C  0.39223684  0.42257099  0.86238718     0.26300
C1777       C  0.37606201  0.43575847  0.86480710    -0.11400
C1778       C  0.36986481  0.44856905  0.84900440    -0.25400
C1779       C  0.37978875  0.44716373  0.83021605     0.37200
C1780       C  0.39609988  0.43383145  0.82780370    -0.27100
F1781       F  0.39775988  0.41058890  0.87813173    -0.19200
H1782       H  0.36860781  0.43613082  0.87936218     0.16500
F1783       F  0.37411098  0.45888200  0.81435185    -0.22900
H1784       H  0.40398376  0.43332712  0.81346483     0.18300
C1785       C  0.44020650  0.40328840  0.16621874    -0.26900
C1786       C  0.43172803  0.41325066  0.14949949     0.06700
C1787       C  0.43757369  0.40742743  0.13001591     0.26300
C1788       C  0.45091442  0.39133442  0.12733155    -0.11400
C1789       C  0.45888534  0.38077216  0.14397666    -0.25400
C1790       C  0.45381931  0.38727840  0.16354869     0.37100
C1791       C  0.41546035  0.42840765  0.15207476     0.06700
F1792       F  0.42951545  0.41658709  0.11350529    -0.19200
H1793       H  0.45469228  0.38688785  0.11208599     0.16500
F1794       F  0.46132973  0.37773390  0.18008754    -0.22900
H1795       H  0.43593648  0.40766598  0.18135653     0.18300
C1796       C  0.39737377  0.42314642  0.16187269     0.26300
C1797       C  0.38060253  0.43601840  0.16091887    -0.11400
C1798       C  0.38154680  0.45427601  0.15009432    -0.25400
C1799       C  0.40018116  0.46020455  0.14163035     0.37200
C1800       C  0.41692010  0.44731538  0.14259565    -0.27100
F1801       F  0.39542185  0.40487998  0.17100246    -0.19200
H1802       H  0.36652166  0.43112133  0.16767955     0.16500
F1803       F  0.40211762  0.47817947  0.13191624    -0.22900
H1804       H  0.43086076  0.45175193  0.13523311     0.18300
C1805       C  0.49264686  0.34548382  0.01833850    -0.26900
C1806       C  0.50655121  0.33478632  0.00624673     0.06700
C1807       C  0.52109263  0.32274867  0.01645441     0.26300
C1808       C  0.52156248  0.32158602  0.03776686    -0.11400
C1809       C  0.50732530  0.33193830  0.04972429    -0.25400
C1810       C  0.49283136  0.34394758  0.03956826     0.37100
C1811       C  0.50569739  0.33616988  0.98328018     0.06700
F1812       F  0.53446807  0.31140356  0.00588263    -0.19200
H1813       H  0.53281230  0.31202666  0.04493189     0.16500
F1814       F  0.47892894  0.35461332  0.05018248    -0.22900
H1815       H  0.48157026  0.35536319  0.01136721     0.18300
C1816       C  0.48711214  0.33656598  0.97269835     0.26300
C1817       C  0.48653505  0.33739984  0.95142936    -0.11400
C1818       C  0.50433796  0.33770984  0.93971911    -0.25400
C1819       C  0.52292843  0.33768668  0.95025127     0.37200
C1820       C  0.52351149  0.33705085  0.97155818    -0.27100
F1821       F  0.46931717  0.33529525  0.98278878    -0.19200
H1822       H  0.47190568  0.33728814  0.94406635     0.16500
F1823       F  0.54069399  0.33800207  0.94002884    -0.22900
H1824       H  0.53813327  0.33733329  0.97890903     0.18300
C1825       C  0.41835403  0.25169098  0.12529161    -0.26900
C1826       C  0.40730470  0.25476746  0.10749378     0.06700
C1827       C  0.41174821  0.27158545  0.09516338     0.26300
C1828       C  0.42819477  0.28375424  0.09956193    -0.11400
C1829       C  0.44057514  0.27922783  0.11604997    -0.25400
C1830       C  0.43505980  0.26371214  0.12948494     0.37100
C1831       C  0.39475335  0.23844014  0.09925390     0.06700
F1832       F  0.40161694  0.27507854  0.07769163    -0.19200
H1833       H  0.43208134  0.29587622  0.08922299     0.16500
F1834       F  0.44616899  0.25978907  0.14626648    -0.22900
H1835       H  0.41489425  0.23908849  0.13520081     0.18300
C1836       C  0.40338217  0.21913687  0.09682934     0.26300
C1837       C  0.39606584  0.20636522  0.08197537    -0.11400
C1838       C  0.38039702  0.21281178  0.06927212    -0.25400
C1839       C  0.36991517  0.23072031  0.07367288     0.37200
C1840       C  0.37686553  0.24326205  0.08893003    -0.27100
F1841       F  0.42054689  0.21370647  0.10670220    -0.19200
H1842       H  0.40412309  0.19236938  0.07901827     0.16500
F1843       F  0.35401344  0.23683114  0.06222297    -0.22900
H1844       H  0.36962603  0.25783376  0.09108601     0.18300
C1845       C  0.39390479  0.26145453  0.93750816    -0.26900
C1846       C  0.39253503  0.25415810  0.91769100     0.06700
C1847       C  0.38362917  0.23531103  0.91425599     0.26300
C1848       C  0.37837930  0.22305617  0.93053384    -0.11400
C1849       C  0.38163844  0.22957987  0.95038457    -0.25400
C1850       C  0.38834756  0.24931432  0.95380324     0.37100
C1851       C  0.40446085  0.26412277  0.90176680     0.06700
F1852       F  0.38131714  0.22824457  0.89522706    -0.19200
H1853       H  0.37258971  0.20806945  0.92762013     0.16500
F1854       F  0.39136357  0.25615846  0.97281123    -0.22900
H1855       H  0.40092049  0.27588371  0.94051009     0.18300
C1856       C  0.40393412  0.28514676  0.89935680     0.26300
C1857       C  0.41956744  0.29490230  0.88916941    -0.11400
C1858       C  0.43600937  0.28383065  0.88141636    -0.25400
C1859       C  0.43521493  0.26262138  0.88180960     0.37200
C1860       C  0.41955304  0.25291598  0.89195586    -0.27100
F1861       F  0.38915144  0.29630375  0.90816022    -0.19200
H1862       H  0.41945072  0.31124848  0.88860958     0.16500
F1863       F  0.45034411  0.25122859  0.87395067    -0.22900
H1864       H  0.42029271  0.23665328  0.89369682     0.18300
C1865       C  0.23795480  0.26135958  0.98046103    -0.26900
C1866       C  0.24630667  0.25478921  0.99887765     0.06700
C1867       C  0.23906069  0.26358245  0.01678541     0.26300
C1868       C  0.22475479  0.27920510  0.01621812    -0.11400
C1869       C  0.21721788  0.28669176  0.99780746    -0.25400
C1870       C  0.22360187  0.27713033  0.97986293     0.37100
C1871       C  0.26392035  0.24046952  0.99954036     0.06700
F1872       F  0.24625309  0.25740780  0.03496467    -0.19200
H1873       H  0.22022209  0.28602195  0.03031788     0.16500
F1874       F  0.21657639  0.28342920  0.96165887    -0.22900
H1875       H  0.24325165  0.25495115  0.96643288     0.18300
C1876       C  0.26405389  0.22170886  0.98953620     0.26300
C1877       C  0.28097971  0.20868313  0.99097579    -0.11400
C1878       C  0.29821420  0.21429964  0.00208193    -0.25400
C1879       C  0.29790500  0.23315147  0.01192038     0.37200
C1880       C  0.28111261  0.24590465  0.01058739    -0.27100
F1881       F  0.24780122  0.21588083  0.97857276    -0.19200
H1882       H  0.28078411  0.19446038  0.98304927     0.16500
F1883       F  0.31391901  0.23945063  0.02299180    -0.22900
H1884       H  0.28167417  0.26033556  0.01812939     0.18300
C1885       C  0.59631069  0.26386435  0.12497996    -0.26900
C1886       C  0.59420995  0.24550619  0.11494920     0.06700
C1887       C  0.57505001  0.23653881  0.11335361     0.26300
C1888       C  0.55786684  0.24740305  0.11895210    -0.11400
C1889       C  0.55987974  0.26719230  0.12595196    -0.25400
C1890       C  0.57918587  0.27473581  0.13048755     0.37100
C1891       C  0.60965882  0.23985272  0.10028094     0.06700
F1892       F  0.57276293  0.21874910  0.10356056    -0.19200
H1893       H  0.54307845  0.24127588  0.11568639     0.16500
F1894       F  0.58147818  0.29341902  0.13844093    -0.22900
H1895       H  0.61102488  0.27084904  0.12628805     0.18300
C1896       C  0.61103901  0.25142151  0.08253263     0.26300
C1897       C  0.62078457  0.24363441  0.06577028    -0.11400
C1898       C  0.62929945  0.22430387  0.06656209    -0.25400
C1899       C  0.63010733  0.21378022  0.08507636     0.37200
C1900       C  0.61992879  0.22144037  0.10182607    -0.27100
F1901       F  0.60090849  0.26919458  0.08067827    -0.19200
H1902       H  0.62023390  0.25201699  0.05171044     0.16500
F1903       F  0.63869930  0.19518735  0.08640783    -0.22900
H1904       H  0.61887265  0.21245042  0.11546657     0.18300
C1905       C  0.59535736  0.25437452  0.93322595    -0.26900
C1906       C  0.59893888  0.24654033  0.91400495     0.06700
C1907       C  0.61307170  0.23115645  0.91118890     0.26300
C1908       C  0.62279193  0.22281895  0.92786954    -0.11400
C1909       C  0.61818354  0.22961760  0.94745028    -0.25400
C1910       C  0.60485192  0.24598396  0.94993749     0.37100
C1911       C  0.58622129  0.25361515  0.89760702     0.06700
F1912       F  0.61674510  0.22369103  0.89252541    -0.19200
H1913       H  0.63308085  0.21029446  0.92550257     0.16500
F1914       F  0.60022178  0.25327919  0.96846629    -0.22900
H1915       H  0.58442382  0.26641168  0.93534317     0.18300
C1916       C  0.56762278  0.24411952  0.89427966     0.26300
C1917       C  0.55216878  0.25458212  0.88450729    -0.11400
C1918       C  0.55525625  0.27458185  0.87828816    -0.25400
C1919       C  0.57473934  0.28308963  0.87965535     0.37200
C1920       C  0.59009118  0.27258757  0.88936242    -0.27100
F1921       F  0.56372619  0.22575664  0.90254907    -0.19200
H1922       H  0.53735441  0.24772689  0.88350291     0.16500
F1923       F  0.57854323  0.30220228  0.87324153    -0.22900
H1924       H  0.60442072  0.27998968  0.89207759     0.18300
C1925       C  0.48044188  0.16026389  0.98867673    -0.26900
C1926       C  0.49076841  0.16787731  0.00556196     0.06700
C1927       C  0.47910557  0.17371503  0.02240325     0.26300
C1928       C  0.45785019  0.17201716  0.02221735    -0.11400
C1929       C  0.44750840  0.16492092  0.00510250    -0.25400
C1930       C  0.45918300  0.15892499  0.98834763     0.37100
C1931       C  0.51351999  0.16988595  0.00539189     0.06700
F1932       F  0.48826045  0.18095147  0.03916707    -0.19200
H1933       H  0.44940073  0.17686321  0.03533112     0.16500
F1934       F  0.45005516  0.15162092  0.97160490    -0.22900
H1935       H  0.48886352  0.15571799  0.97544245     0.18300
C1936       C  0.52617419  0.15367950  0.99977177     0.26300
C1937       C  0.54739834  0.15570715  0.99973840    -0.11400
C1938       C  0.55676594  0.17401641  0.00503350    -0.25400
C1939       C  0.54401398  0.19035147  0.01034720     0.37200
C1940       C  0.52281463  0.18820508  0.01063237    -0.27100
F1941       F  0.51803863  0.13563456  0.99472615    -0.19200
H1942       H  0.55653367  0.14282847  0.99549278     0.16500
F1943       F  0.55193033  0.20851408  0.01534403    -0.22900
H1944       H  0.51358214  0.20107456  0.01471876     0.18300
C1945       C  0.39683295  0.83096068  0.42889260    -0.26900
C1946       C  0.39964831  0.84701696  0.41531616     0.06700
C1947       C  0.38555984  0.86284623  0.41473259     0.26300
C1948       C  0.36985667  0.86344517  0.42861471    -0.11400
C1949       C  0.36783975  0.84828843  0.44338823    -0.25400
C1950       C  0.38097499  0.83150665  0.44287548     0.37100
C1951       C  0.41759549  0.84783600  0.40222339     0.06700
F1952       F  0.38727398  0.87800828  0.40099155    -0.19200
H1953       H  0.35964550  0.87625657  0.42817813     0.16500
F1954       F  0.37915873  0.81616654  0.45638100    -0.22900
H1955       H  0.40741193  0.81844213  0.42920627     0.18300
C1956       C  0.43035779  0.86471131  0.40273814     0.26300
C1957       C  0.44607879  0.86656441  0.38890388    -0.11400
C1958       C  0.44940291  0.85162764  0.37430219    -0.25400
C1959       C  0.43718251  0.83420586  0.37450409     0.37200
C1960       C  0.42144072  0.83237386  0.38843759    -0.27100
F1961       F  0.42739717  0.87957775  0.41644930    -0.19200
H1962       H  0.45532605  0.87999928  0.38935001     0.16500
F1963       F  0.43991618  0.81923133  0.36088857    -0.22900
H1964       H  0.41176475  0.81924181  0.38797462     0.18300
C1965       C  0.43566179  0.17295761  0.39978774    -0.26900
C1966       C  0.42897006  0.15554766  0.40996277     0.06700
C1967       C  0.43888035  0.13715571  0.40647993     0.26300
C1968       C  0.45410318  0.13587401  0.39207345    -0.11400
C1969       C  0.45972120  0.15280330  0.38046362    -0.25400
C1970       C  0.45094200  0.17164740  0.38507092     0.37100
C1971       C  0.41037632  0.15567551  0.42245539     0.06700
F1972       F  0.43314449  0.12012527  0.41638697    -0.19200
H1973       H  0.46075924  0.12118361  0.38930274     0.16500
F1974       F  0.45612150  0.18847602  0.37456886    -0.22900
H1975       H  0.42823876  0.18731885  0.40238090     0.18300
C1976       C  0.40867094  0.16728752  0.44005534     0.26300
C1977       C  0.39165051  0.16521339  0.45258353    -0.11400
C1978       C  0.37626309  0.15144834  0.44774730    -0.25400
C1979       C  0.37766061  0.14059601  0.42963804     0.37200
C1980       C  0.39449167  0.14276737  0.41717441    -0.27100
F1981       F  0.42385941  0.17977889  0.44562794    -0.19200
H1982       H  0.39090153  0.17370371  0.46647549     0.16500
F1983       F  0.36276390  0.12777180  0.42399351    -0.22900
H1984       H  0.39536745  0.13395258  0.40347659     0.18300
C1985       C  0.50384274  0.24203360  0.26870502    -0.26900
C1986       C  0.49521571  0.24089879  0.24929086     0.06700
C1987       C  0.48597623  0.22269063  0.24371239     0.26300
C1988       C  0.48524194  0.20627708  0.25711133    -0.11400
C1989       C  0.49375744  0.20718928  0.27662240    -0.25400
C1990       C  0.50301235  0.22548233  0.28229667     0.37100
C1991       C  0.49611438  0.25824020  0.23454368     0.06700
F1992       F  0.47822421  0.22044818  0.22490776    -0.19200
H1993       H  0.47811218  0.19257023  0.25191819     0.16500
F1994       F  0.51158971  0.22731810  0.30075342    -0.22900
H1995       H  0.51117511  0.25581907  0.27338751     0.18300
C1996       C  0.47844521  0.26543255  0.22494834     0.26300
C1997       C  0.47959879  0.27946640  0.20900250    -0.11400
C1998       C  0.49831576  0.28699492  0.20241445    -0.25400
C1999       C  0.51590189  0.28059253  0.21255773     0.37200
C2000       C  0.51478358  0.26647154  0.22851307    -0.27100
F2001       F  0.46004221  0.25838812  0.23059592    -0.19200
H2002       H  0.46587638  0.28382997  0.20119509     0.16500
F2003       F  0.53429348  0.28684686  0.20601751    -0.22900
H2004       H  0.52863914  0.26111887  0.23542041     0.18300
C2005       C  0.49548274  0.97829555  0.34236128    -0.26900
C2006       C  0.50107411  0.98987823  0.32531741     0.06700
C2007       C  0.50622340  0.97917935  0.30766955     0.26300
C2008       C  0.50571362  0.95785493  0.30713664    -0.11400
C2009       C  0.50035008  0.94619969  0.32420224    -0.25400
C2010       C  0.49525632  0.95689885  0.34192669     0.37100
C2011       C  0.50161302  0.01288102  0.32589751     0.06700
F2012       F  0.51132050  0.98937478  0.29062840    -0.19200
H2013       H  0.50969293  0.95040374  0.29316940     0.16500
F2014       F  0.48979280  0.94674256  0.35887506    -0.22900
H2015       H  0.49152119  0.98585600  0.35627452     0.18300
C2016       C  0.48526323  0.02439077  0.33340150     0.26300
C2017       C  0.48574492  0.04574349  0.33319329    -0.11400
C2018       C  0.50255151  0.05656449  0.32567782    -0.25400
C2019       C  0.51905294  0.04501809  0.31849224     0.37200
C2020       C  0.51849422  0.02365844  0.31857302    -0.27100
F2021       F  0.46840287  0.01503840  0.34033620    -0.19200
H2022       H  0.47266226  0.05386022  0.33878516     0.16500
F2023       F  0.53579822  0.05429394  0.31119916    -0.22900
H2024       H  0.53149585  0.01545311  0.31291700     0.18300
C2025       C  0.39900595  0.12357024  0.26817190    -0.26900
C2026       C  0.39326576  0.10360515  0.27245127     0.06700
C2027       C  0.40180249  0.09361780  0.28921823     0.26300
C2028       C  0.41747414  0.10253625  0.29979382    -0.11400
C2029       C  0.42530437  0.12109618  0.29340413    -0.25400
C2030       C  0.41513257  0.13225934  0.27847611     0.37100
C2031       C  0.38333779  0.09150534  0.25674435     0.06700
F2032       F  0.39733351  0.07408648  0.29351996    -0.19200
H2033       H  0.42508256  0.09373073  0.31135890     0.16500
F2034       F  0.42182602  0.15076711  0.27276338    -0.22900
H2035       H  0.39241437  0.13159589  0.25548997     0.18300
C2036       C  0.36909118  0.07667904  0.26181580     0.26300
C2037       C  0.36550728  0.06077544  0.24864026    -0.11400
C2038       C  0.37565397  0.05977210  0.23003659    -0.25400
C2039       C  0.38787317  0.07602488  0.22395223     0.37200
C2040       C  0.39173621  0.09167469  0.23729042    -0.27100
F2041       F  0.35976395  0.07682726  0.28005000    -0.19200
H2042       H  0.35532724  0.04887381  0.25332449     0.16500
F2043       F  0.39733737  0.07613787  0.20578827    -0.22900
H2044       H  0.40272957  0.10298301  0.23298056     0.18300
C2045       C  0.37997299  0.90470449  0.23544816    -0.26900
C2046       C  0.38810300  0.90766912  0.25467586     0.06700
C2047       C  0.38589527  0.92656250  0.26407023     0.26300
C2048       C  0.37789925  0.94280773  0.25328386    -0.11400
C2049       C  0.37257891  0.94042176  0.23301182    -0.25400
C2050       C  0.37246487  0.92101148  0.22452248     0.37100
C2051       C  0.40333295  0.89334417  0.26217625     0.06700
F2052       F  0.39394033  0.93008716  0.28253664    -0.19200
H2053       H  0.37794622  0.95762064  0.26008941     0.16500
F2054       F  0.36676813  0.91808050  0.20509776    -0.22900
H2055       H  0.38140064  0.89020347  0.22812406     0.18300
C2056       C  0.40390125  0.88752634  0.28251666     0.26300
C2057       C  0.42130256  0.87860277  0.29028882    -0.11400
C2058       C  0.43827562  0.87573199  0.27790903    -0.25400
C2059       C  0.43704287  0.87970902  0.25723729     0.37200
C2060       C  0.41957947  0.88839655  0.24940545    -0.27100
F2061       F  0.38826257  0.89173191  0.29508158    -0.19200
H2062       H  0.42205727  0.87537221  0.30631838     0.16500
F2063       F  0.45300838  0.87610095  0.24488763    -0.22900
H2064       H  0.41941518  0.89275255  0.23361963     0.18300
C2065       C  0.36070024  0.07397615  0.10437113    -0.26900
C2066       C  0.34295975  0.07280319  0.09295406     0.06700
C2067       C  0.32759135  0.05952402  0.09897540     0.26300
C2068       C  0.33047397  0.04699399  0.11583764    -0.11400
C2069       C  0.34863084  0.04770647  0.12692416    -0.25400
C2070       C  0.36359243  0.06167775  0.12113254     0.37100
C2071       C  0.34163235  0.08520702  0.07449231     0.06700
F2072       F  0.31021326  0.05817974  0.08821745    -0.19200
H2073       H  0.31864205  0.03649029  0.11998729     0.16500
F2074       F  0.38123053  0.06341809  0.13141516    -0.22900
H2075       H  0.37257173  0.08440821  0.10008740     0.18300
C2076       C  0.32730764  0.10081087  0.07256899     0.26300
C2077       C  0.32981307  0.11566348  0.05765758    -0.11400
C2078       C  0.34677470  0.11517135  0.04491067    -0.25400
C2079       C  0.36006755  0.09865780  0.04584898     0.37200
C2080       C  0.35735840  0.08372313  0.06039225    -0.27100
F2081       F  0.31211939  0.10274511  0.08619358    -0.19200
H2082       H  0.31946266  0.12836658  0.05714162     0.16500
F2083       F  0.37633451  0.09756295  0.03341440    -0.22900
H2084       H  0.36844112  0.07168915  0.06160949     0.18300
C2085       C  0.26124410  0.98604028  0.23104535    -0.26900
C2086       C  0.25705675  0.00279910  0.24341794     0.06700
C2087       C  0.26952685  0.01993424  0.24144106     0.26300
C2088       C  0.28621664  0.01977100  0.22830166    -0.11400
C2089       C  0.29071503  0.00278122  0.21647265    -0.25400
C2090       C  0.27778665  0.98604315  0.21766192     0.37100
C2091       C  0.24112872  0.00150414  0.25961622     0.06700
F2092       F  0.26654708  0.03632463  0.25326841    -0.19200
H2093       H  0.29618929  0.03270144  0.22796178     0.16500
F2094       F  0.28204906  0.96911522  0.20703819    -0.22900
H2095       H  0.25201716  0.97261997  0.23221299     0.18300
C2096       C  0.22685398  0.01704065  0.26281734     0.26300
C2097       C  0.21320006  0.01606348  0.27912180    -0.11400
C2098       C  0.21314093  0.99947415  0.29251971    -0.25400
C2099       C  0.22707845  0.98371218  0.28894498     0.37200
C2100       C  0.24077061  0.98476238  0.27275435    -0.27100
F2101       F  0.22595628  0.03313290  0.25010680    -0.19200
H2102       H  0.20270860  0.02843154  0.28135291     0.16500
F2103       F  0.22830663  0.96770643  0.30173581    -0.22900
H2104       H  0.25166484  0.97267541  0.27090020     0.18300
C2105       C  0.56665794  0.11549756  0.23570407    -0.26900
C2106       C  0.55803718  0.10142036  0.22259581     0.06700
C2107       C  0.53687429  0.09995796  0.22125197     0.26300
C2108       C  0.52478649  0.11005621  0.23516425    -0.11400
C2109       C  0.53383498  0.12145970  0.25041492    -0.25400
C2110       C  0.55464554  0.12539172  0.24967925     0.37100
C2111       C  0.57093905  0.08473864  0.21580284     0.06700
F2112       F  0.52814272  0.08680415  0.20829606    -0.19200
H2113       H  0.50869983  0.10714233  0.23537462     0.16500
F2114       F  0.56365244  0.13708293  0.26379271    -0.22900
H2115       H  0.58289448  0.11688311  0.23701107     0.18300
C2116       C  0.59017987  0.08837449  0.20769270     0.26300
C2117       C  0.60415774  0.07267750  0.20635649    -0.11400
C2118       C  0.59906798  0.05312006  0.21291496    -0.25400
C2119       C  0.57945181  0.04939967  0.22020436     0.37200
C2120       C  0.56564547  0.06510117  0.22170338    -0.27100
F2121       F  0.59557484  0.10717880  0.20156808    -0.19200
H2122       H  0.61892644  0.07583307  0.20006527     0.16500
F2123       F  0.57339259  0.03060310  0.22570858    -0.22900
H2124       H  0.55106548  0.06201567  0.22845693     0.18300
C2125       C  0.57381057  0.89049357  0.24134931    -0.26900
C2126       C  0.59301323  0.88825448  0.24999496     0.06700
C2127       C  0.59533964  0.87773640  0.26816636     0.26300
C2128       C  0.57832544  0.87094643  0.27843673    -0.11400
C2129       C  0.55886751  0.87503988  0.27083150    -0.25400
C2130       C  0.55674962  0.88411150  0.25176017     0.37100
C2131       C  0.60886553  0.90173175  0.24291882     0.06700
F2132       F  0.61386229  0.87563488  0.27673194    -0.19200
H2133       H  0.58037200  0.86381653  0.29301507     0.16500
F2134       F  0.53825655  0.88799653  0.24374133    -0.22900
H2135       H  0.57188960  0.89892068  0.22744175     0.18300
C2136       C  0.61568230  0.90072361  0.22297284     0.26300
C2137       C  0.62495784  0.91745643  0.21429065    -0.11400
C2138       C  0.62666941  0.93542759  0.22526350    -0.25400
C2139       C  0.62129742  0.93585320  0.24568334     0.37200
C2140       C  0.61276686  0.91887957  0.25455778    -0.27100
F2141       F  0.61147774  0.88443001  0.21141112    -0.19200
H2142       H  0.62881765  0.91704544  0.19842311     0.16500
F2143       F  0.62269873  0.95312682  0.25650051    -0.22900
H2144       H  0.60715626  0.91990256  0.26987133     0.18300
C2145       C  0.64955494  0.05704343  0.09165834    -0.26900
C2146       C  0.65420411  0.07693961  0.09698414     0.06700
C2147       C  0.65783636  0.08170618  0.11725168     0.26300
C2148       C  0.65578552  0.06686987  0.13208813    -0.11400
C2149       C  0.64979219  0.04728538  0.12686877    -0.25400
C2150       C  0.64732314  0.04226916  0.10649144     0.37100
C2151       C  0.65252370  0.09299669  0.08173938     0.06700
F2152       F  0.66176032  0.10097838  0.12283308    -0.19200
H2153       H  0.65764353  0.07100142  0.14776551     0.16500
F2154       F  0.64228716  0.02323716  0.10099587    -0.22900
H2155       H  0.64684946  0.05317937  0.07603802     0.18300
C2156       C  0.66852817  0.10627172  0.07784272     0.26300
C2157       C  0.66611857  0.12178926  0.06373140    -0.11400
C2158       C  0.64769774  0.12431092  0.05341664    -0.25400
C2159       C  0.63162768  0.11102227  0.05759725     0.37200
C2160       C  0.63415665  0.09546602  0.07153119    -0.27100
F2161       F  0.68648920  0.10409074  0.08750017    -0.19200
H2162       H  0.67870621  0.13180721  0.06086560     0.16500
F2163       F  0.61328301  0.11326271  0.04868324    -0.22900
H2164       H  0.62156168  0.08553358  0.07471456     0.18300
C2165       C  0.51974897  0.98383044  0.18660212    -0.26900
C2166       C  0.50932005  0.99155708  0.16978397     0.06700
C2167       C  0.52093187  0.99871817  0.15337490     0.26300
C2168       C  0.54231078  0.99843551  0.15406615    -0.11400
C2169       C  0.55276689  0.99118627  0.17119650    -0.25400
C2170       C  0.54099176  0.98367601  0.18740395     0.37100
C2171       C  0.48650220  0.99268214  0.16997604     0.06700
F2172       F  0.51160728  0.00585847  0.13655940    -0.19200
H2173       H  0.55067709  0.00425388  0.14128323     0.16500
F2174       F  0.54991302  0.97637831  0.20436592    -0.22900
H2175       H  0.51137568  0.97835251  0.19953820     0.18300
C2176       C  0.47463776  0.97588915  0.17552618     0.26300
C2177       C  0.45343215  0.97743181  0.17678142    -0.11400
C2178       C  0.44326861  0.99576931  0.17274479    -0.25400
C2179       C  0.45515419  0.01254998  0.16708352     0.37200
C2180       C  0.47638232  0.01093637  0.16564190    -0.27100
F2181       F  0.48351519  0.95781234  0.17952457    -0.19200
H2182       H  0.44494807  0.96415959  0.18112981     0.16500
F2183       F  0.44634302  0.03061259  0.16293247    -0.22900
H2184       H  0.48500756  0.02420242  0.16156813     0.18300
C2185       C  0.60320063  0.83556847  0.43081607    -0.26900
C2186       C  0.59314452  0.85290283  0.42384852     0.06700
C2187       C  0.59879197  0.87189569  0.43121697     0.26300
C2188       C  0.61430042  0.87346231  0.44528313    -0.11400
C2189       C  0.62465638  0.85620611  0.45205520    -0.25400
C2190       C  0.61889496  0.83713740  0.44478889     0.37100
C2191       C  0.57725017  0.85141324  0.40839233     0.06700
F2192       F  0.58986775  0.88900945  0.42417192    -0.19200
H2193       H  0.61864428  0.88836821  0.45043578     0.16500
F2194       F  0.62827455  0.82005143  0.45127050    -0.22900
H2195       H  0.59889333  0.82075890  0.42534286     0.18300
C2196       C  0.58125738  0.84218948  0.38979214     0.26300
C2197       C  0.56697392  0.84316646  0.37435730    -0.11400
C2198       C  0.54859778  0.85344842  0.37717495    -0.25400
C2199       C  0.54416010  0.86163103  0.39622539     0.37200
C2200       C  0.55842690  0.86059441  0.41163928    -0.27100
F2201       F  0.59943743  0.83338134  0.38614351    -0.19200
H2202       H  0.57074656  0.83666036  0.35978845     0.16500
F2203       F  0.52620491  0.87089104  0.39988258    -0.22900
H2204       H  0.55496883  0.86747258  0.42612146     0.18300
C2205       C  0.58738925  0.13676419  0.37692406    -0.26900
C2206       C  0.58755602  0.15333614  0.38996336     0.06700
C2207       C  0.57405786  0.16939620  0.38640756     0.26300
C2208       C  0.55980624  0.16817092  0.37079037    -0.11400
C2209       C  0.55891094  0.15100797  0.35834957    -0.25400
C2210       C  0.57339875  0.13559136  0.36124072     0.37100
C2211       C  0.60128456  0.15296500  0.40765697     0.06700
F2212       F  0.57394385  0.18575659  0.39862905    -0.19200
H2213       H  0.54903959  0.18035733  0.36890672     0.16500
F2214       F  0.57374236  0.11895678  0.34940075    -0.22900
H2215       H  0.59794334  0.12444309  0.37916230     0.18300
C2216       C  0.60071567  0.13661138  0.42120681     0.26300
C2217       C  0.61465498  0.13518431  0.43694224    -0.11400
C2218       C  0.62965749  0.14993560  0.43956039    -0.25400
C2219       C  0.62996692  0.16659502  0.42616109     0.37200
C2220       C  0.61578571  0.16810130  0.41046668    -0.27100
F2221       F  0.58666030  0.12188479  0.41916620    -0.19200
H2222       H  0.61381899  0.12225483  0.44692969     0.16500
F2223       F  0.64414975  0.18122903  0.42786589    -0.22900
H2224       H  0.61653787  0.18074254  0.40010944     0.18300
C2225       C  0.74173158  0.22872405  0.52051242    -0.26900
C2226       C  0.74322273  0.24282605  0.50463032     0.06700
C2227       C  0.72971405  0.24084440  0.48827389     0.26300
C2228       C  0.71590922  0.22473918  0.48748274    -0.11400
C2229       C  0.71480780  0.21034152  0.50311937    -0.25400
C2230       C  0.72770376  0.21282691  0.51989386     0.37100
C2231       C  0.75962902  0.25860307  0.50459368     0.06700
F2232       F  0.72980915  0.25450748  0.47296389    -0.19200
H2233       H  0.70616895  0.22342261  0.47444681     0.16500
F2234       F  0.72763075  0.19924494  0.53528220    -0.22900
H2235       H  0.75202175  0.22949281  0.53316283     0.18300
C2236       C  0.76465503  0.26966782  0.52203338     0.26300
C2237       C  0.78086457  0.28343831  0.52186213    -0.11400
C2238       C  0.79236513  0.28680735  0.50428117    -0.25400
C2239       C  0.78716965  0.27589204  0.48682983     0.37200
C2240       C  0.77115740  0.26203012  0.48707177    -0.27100
F2241       F  0.75378809  0.26736882  0.53924533    -0.19200
H2242       H  0.78445168  0.29146088  0.53557086     0.16500
F2243       F  0.79818199  0.27781825  0.46966342    -0.22900
H2244       H  0.76819148  0.25344937  0.47356061     0.18300
C2245       C  0.66105011  0.02482708  0.49264610    -0.26900
C2246       C  0.67812519  0.01402290  0.49983034     0.06700
C2247       C  0.69473833  0.02576556  0.50630968     0.26300
C2248       C  0.69435443  0.04707124  0.50515003    -0.11400
C2249       C  0.67734050  0.05782812  0.49795369    -0.25400
C2250       C  0.66053075  0.04623582  0.49189546     0.37100
C2251       C  0.67876326  0.99085029  0.50017496     0.06700
F2252       F  0.71133466  0.01677422  0.51438796    -0.19200
H2253       H  0.70755447  0.05525739  0.51027010     0.16500
F2254       F  0.64366332  0.05552064  0.48477215    -0.22900
H2255       H  0.64801585  0.01667760  0.48711450     0.18300
C2256       C  0.66163380  0.97896036  0.50502793     0.26300
C2257       C  0.66248732  0.95756106  0.50477151    -0.11400
C2258       C  0.68046419  0.94699858  0.50009291    -0.25400
C2259       C  0.69767129  0.95886450  0.49566904     0.37200
C2260       C  0.69669679  0.98020077  0.49546325    -0.27100
F2261       F  0.64406508  0.98792682  0.51064374    -0.19200
H2262       H  0.64893076  0.94918857  0.50854692     0.16500
F2263       F  0.71558355  0.94990923  0.49121271    -0.22900
H2264       H  0.71019396  0.98841134  0.49118470     0.18300
C2265       C  0.77171742  0.09637673  0.38168849    -0.26900
C2266       C  0.75465591  0.09414942  0.39385731     0.06700
C2267       C  0.74448906  0.07564184  0.39474626     0.26300
C2268       C  0.75255427  0.05891815  0.38505557    -0.11400
C2269       C  0.77087638  0.06051754  0.37451911    -0.25400
C2270       C  0.77976653  0.07967496  0.37182365     0.37100
C2271       C  0.74982269  0.10943126  0.40879880     0.06700
F2272       F  0.72793099  0.07330959  0.40663437    -0.19200
H2273       H  0.74527066  0.04443363  0.38707541     0.16500
F2274       F  0.79728834  0.08198326  0.36142661    -0.22900
H2275       H  0.77961563  0.11065569  0.38106134     0.18300
C2276       C  0.75851204  0.10772180  0.42799659     0.26300
C2277       C  0.74995858  0.11794628  0.44412782    -0.11400
C2278       C  0.73264218  0.12986842  0.44119672    -0.25400
C2279       C  0.72566035  0.13359964  0.42141360     0.37200
C2280       C  0.73409758  0.12309535  0.40531351    -0.27100
F2281       F  0.77388041  0.09452218  0.43147770    -0.19200
H2282       H  0.75582096  0.11515525  0.45913422     0.16500
F2283       F  0.70935515  0.14557917  0.41783350    -0.22900
H2284       H  0.72741997  0.12446900  0.39046045     0.18300
C2285       C  0.72617272  0.88035728  0.40126765    -0.26900
C2286       C  0.74544477  0.88878699  0.40269124     0.06700
C2287       C  0.75658776  0.88678145  0.42060489     0.26300
C2288       C  0.74733796  0.87911967  0.43779511    -0.11400
C2289       C  0.72715179  0.87294528  0.43704975    -0.25400
C2290       C  0.71709631  0.87210290  0.41833340     0.37100
C2291       C  0.75132447  0.90470931  0.38864963     0.06700
F2292       F  0.77538785  0.89476991  0.42219119    -0.19200
H2293       H  0.75547441  0.87933224  0.45195437     0.16500
F2294       F  0.69776097  0.86545878  0.41691026    -0.22900
H2295       H  0.71750629  0.88189257  0.38749498     0.18300
C2296       C  0.76987711  0.90370228  0.37864047     0.26300
C2297       C  0.77869644  0.92133627  0.37145590    -0.11400
C2298       C  0.76927413  0.94014276  0.37463257    -0.25400
C2299       C  0.74983404  0.94084250  0.38306445     0.37200
C2300       C  0.74084028  0.92311000  0.38982273    -0.27100
F2301       F  0.78025369  0.88603212  0.37758396    -0.19200
H2302       H  0.79364282  0.92038995  0.36484561     0.16500
F2303       F  0.74007001  0.95865580  0.38587502    -0.22900
H2304       H  0.72654907  0.92401919  0.39777110     0.18300
C2305       C  0.91834309  0.10923082  0.34280689    -0.26900
C2306       C  0.92463408  0.08916892  0.34581683     0.06700
C2307       C  0.94527891  0.08518748  0.34941829     0.26300
C2308       C  0.95905862  0.10114561  0.35087121    -0.11400
C2309       C  0.95245385  0.12114721  0.34852367    -0.25400
C2310       C  0.93208424  0.12508022  0.34425753     0.37100
C2311       C  0.90913080  0.07301698  0.34668652     0.06700
F2312       F  0.95205692  0.06596794  0.35181389    -0.19200
H2313       H  0.97472289  0.09795785  0.35443103     0.16500
F2314       F  0.92531055  0.14436884  0.34252428    -0.22900
H2315       H  0.90254979  0.11272471  0.34026856     0.18300
C2316       C  0.90795299  0.05994666  0.36340729     0.26300
C2317       C  0.89160167  0.04683410  0.36554766    -0.11400
C2318       C  0.87590936  0.04653416  0.35122824    -0.25400
C2319       C  0.87752370  0.05904455  0.33405009     0.37200
C2320       C  0.89396046  0.07213312  0.33188999    -0.27100
F2321       F  0.92186321  0.06073192  0.37840984    -0.19200
H2322       H  0.89093976  0.03738383  0.37887930     0.16500
F2323       F  0.86306936  0.05906248  0.31954026    -0.22900
H2324       H  0.89459292  0.08200375  0.31885680     0.18300
C2325       C  0.75538013  0.98303347  0.27269062    -0.26900
C2326       C  0.75242983  0.00058437  0.26100306     0.06700
C2327       C  0.76488185  0.01735634  0.26498382     0.26300
C2328       C  0.77923741  0.01671261  0.28066201    -0.11400
C2329       C  0.78186871  0.99927163  0.29263021    -0.25400
C2330       C  0.76991634  0.98225531  0.28811231     0.37100
C2331       C  0.73587634  0.00141439  0.24540385     0.06700
F2332       F  0.76328659  0.03439040  0.25364602    -0.19200
H2333       H  0.78818593  0.03004743  0.28359216     0.16500
F2334       F  0.77149590  0.96505822  0.29921117    -0.22900
H2335       H  0.74590434  0.96995035  0.27033105     0.18300
C2336       C  0.73252476  0.98524273  0.23207946     0.26300
C2337       C  0.71610812  0.98551855  0.21861957    -0.11400
C2338       C  0.70249250  0.00189181  0.21790687    -0.25400
C2339       C  0.70617024  0.01835154  0.23087103     0.37200
C2340       C  0.72256901  0.01802128  0.24438369    -0.27100
F2341       F  0.74519356  0.96910115  0.23196052    -0.19200
H2342       H  0.71392678  0.97264962  0.20885936     0.16500
F2343       F  0.69358792  0.03456961  0.23105770    -0.22900
H2344       H  0.72445982  0.03059667  0.25457654     0.18300
C2345       C  0.76577438  0.09668506  0.61863311    -0.26900
C2346       C  0.74598640  0.09433218  0.61159386     0.06700
C2347       C  0.73593866  0.07592626  0.61482071     0.26300
C2348       C  0.74665072  0.05924912  0.62205493    -0.11400
C2349       C  0.76738866  0.06084371  0.62598782    -0.25400
C2350       C  0.77649464  0.08004802  0.62581362     0.37100
C2351       C  0.73858648  0.10800880  0.59573491     0.06700
F2352       F  0.71671190  0.07324679  0.60826075    -0.19200
H2353       H  0.73922112  0.04470985  0.62255365     0.16500
F2354       F  0.79623001  0.08245856  0.63085150    -0.22900
H2355       H  0.77360101  0.11087548  0.61647835     0.18300
C2356       C  0.71892324  0.11592150  0.59612809     0.26300
C2357       C  0.71063435  0.12425089  0.57862109    -0.11400
C2358       C  0.72177230  0.12446787  0.56053871    -0.25400
C2359       C  0.74193339  0.11784417  0.56061350     0.37200
C2360       C  0.75025989  0.10983676  0.57814327    -0.27100
F2361       F  0.70744487  0.11453482  0.61304167    -0.19200
H2362       H  0.69504194  0.12941458  0.57892493     0.16500
F2363       F  0.75331386  0.11827011  0.54358166    -0.22900
H2364       H  0.76546549  0.10362062  0.57753471     0.18300
C2365       C  0.74500754  0.92027023  0.61039588    -0.26900
C2366       C  0.75752452  0.90367814  0.60601363     0.06700
C2367       C  0.77779759  0.90385272  0.61196400     0.26300
C2368       C  0.78599149  0.92134969  0.61987911    -0.11400
C2369       C  0.77410086  0.93889197  0.62175378    -0.25400
C2370       C  0.75321008  0.93784525  0.61832604     0.37100
C2371       C  0.75062625  0.88904832  0.59107747     0.06700
F2372       F  0.79005176  0.88781059  0.60828683    -0.19200
H2373       H  0.80205384  0.92158817  0.62311941     0.16500
F2374       F  0.74113702  0.95427684  0.62060186    -0.22900
H2375       H  0.72927855  0.92039500  0.60578306     0.18300
C2376       C  0.73149873  0.88025838  0.59285932     0.26300
C2377       C  0.72231152  0.87212665  0.57594393    -0.11400
C2378       C  0.73202603  0.87299169  0.55710606    -0.25400
C2379       C  0.75206687  0.87958558  0.55584605     0.37200
C2380       C  0.76132541  0.88757330  0.57282038    -0.27100
F2381       F  0.72104700  0.88121089  0.61044770    -0.19200
H2382       H  0.70689362  0.86678004  0.57727411     0.16500
F2383       F  0.76217154  0.87947864  0.53802684    -0.22900
H2384       H  0.77614525  0.89432751  0.57117705     0.18300
C2385       C  0.88788992  0.07664871  0.67140426    -0.26900
C2386       C  0.89697992  0.08518095  0.65425541     0.06700
C2387       C  0.89252681  0.07740243  0.63516332     0.26300
C2388       C  0.87875437  0.06175713  0.63317619    -0.11400
C2389       C  0.86901833  0.05351935  0.65014700    -0.25400
C2390       C  0.87386721  0.06095574  0.66941346     0.37100
C2391       C  0.91102261  0.10230550  0.65590992     0.06700
F2392       F  0.90153970  0.08497647  0.61836905    -0.19200
H2393       H  0.87554724  0.05622791  0.61818570     0.16500
F2394       F  0.86452068  0.05372215  0.68615996    -0.22900
H2395       H  0.89125047  0.08251868  0.68622578     0.18300
C2396       C  0.90680042  0.12045094  0.64570375     0.26300
C2397       C  0.92149454  0.13540625  0.64428181    -0.11400
C2398       C  0.94055868  0.13261223  0.65316070    -0.25400
C2399       C  0.94437655  0.11492143  0.66439695     0.37200
C2400       C  0.92963917  0.09986767  0.66572770    -0.27100
F2401       F  0.88868381  0.12337138  0.63651375    -0.19200
H2402       H  0.91814937  0.14901131  0.63575094     0.16500
F2403       F  0.96278121  0.11153385  0.67280930    -0.22900
H2404       H  0.93313523  0.08585983  0.67351282     0.18300
C2405       C  0.81738068  0.01910036  0.52220795    -0.26900
C2406       C  0.82474918  0.00238222  0.51136883     0.06700
C2407       C  0.83299814  0.98618874  0.52261095     0.26300
C2408       C  0.83313205  0.98648550  0.54394081    -0.11400
C2409       C  0.82559665  0.00315625  0.55484147    -0.25400
C2410       C  0.81800829  0.01965653  0.54350197     0.37100
C2411       C  0.82351369  0.00185821  0.48852928     0.06700
F2412       F  0.84041529  0.96973536  0.51298086    -0.19200
H2413       H  0.83918318  0.97353275  0.55197158     0.16500
F2414       F  0.81067714  0.03624295  0.55296218    -0.22900
H2415       H  0.81113745  0.03191679  0.51409631     0.18300
C2416       C  0.80490873  0.00425845  0.47838309     0.26300
C2417       C  0.80383967  0.00383986  0.45709290    -0.11400
C2418       C  0.82127886  0.00117762  0.44506118    -0.25400
C2419       C  0.83991216  0.99876291  0.45530216     0.37200
C2420       C  0.84091879  0.99898946  0.47661035    -0.27100
F2421       F  0.78758233  0.00650168  0.48911568    -0.19200
H2422       H  0.78918981  0.00563111  0.45000035     0.16500
F2423       F  0.85728230  0.99602644  0.44477644    -0.22900
H2424       H  0.85548853  0.99712878  0.48385421     0.18300
C2425       C  0.86921899  0.59973991  0.42394868    -0.26900
C2426       C  0.84975935  0.59394357  0.41801985     0.06700
C2427       C  0.83287073  0.60434412  0.42556514     0.26300
C2428       C  0.83555737  0.62032646  0.43890980    -0.11400
C2429       C  0.85506176  0.62594836  0.44502186    -0.25400
C2430       C  0.87192234  0.61557394  0.43730623     0.37100
C2431       C  0.84772448  0.57750301  0.40335940     0.06700
F2432       F  0.81384818  0.59881179  0.42037820    -0.19200
H2433       H  0.82236620  0.62808918  0.44473172     0.16500
F2434       F  0.89105643  0.62103201  0.44220494    -0.22900
H2435       H  0.88242874  0.59215791  0.41792127     0.18300
C2436       C  0.83745440  0.58061597  0.38507913     0.26300
C2437       C  0.83911375  0.56643310  0.36971625    -0.11400
C2438       C  0.85129413  0.54920171  0.37227131    -0.25400
C2439       C  0.86038979  0.54545733  0.39107672     0.37200
C2440       C  0.85851832  0.55950593  0.40648697    -0.27100
F2441       F  0.82728734  0.59807896  0.38141950    -0.19200
H2442       H  0.83191953  0.56960085  0.35537116     0.16500
F2443       F  0.87163161  0.52858633  0.39438329    -0.22900
H2444       H  0.86631525  0.55679498  0.42061355     0.18300
C2445       C  0.76324320  0.72962718  0.48227603    -0.26900
C2446       C  0.76088686  0.74342034  0.49826418     0.06700
C2447       C  0.77469793  0.74196337  0.51448667     0.26300
C2448       C  0.79033249  0.72757330  0.51440935    -0.11400
C2449       C  0.79319618  0.71449242  0.49802221    -0.25400
C2450       C  0.77929199  0.71560152  0.48195857     0.37100
C2451       C  0.74462872  0.75956993  0.49777179     0.06700
F2452       F  0.77392466  0.75516968  0.53002644    -0.19200
H2453       H  0.80092915  0.72739611  0.52689808     0.16500
F2454       F  0.78123457  0.70320012  0.46585491    -0.22900
H2455       H  0.75267044  0.72971960  0.46979233     0.18300
C2456       C  0.73962095  0.77008458  0.47982978     0.26300
C2457       C  0.72548800  0.78603188  0.47997850    -0.11400
C2458       C  0.71611998  0.79234207  0.49796760    -0.25400
C2459       C  0.72075265  0.78154770  0.51578746     0.37200
C2460       C  0.73446102  0.76528592  0.51554615    -0.27100
F2461       F  0.74911982  0.76576789  0.46223212    -0.19200
H2462       H  0.72252931  0.79405926  0.46597757     0.16500
F2463       F  0.71235706  0.78688874  0.53365508    -0.22900
H2464       H  0.73725704  0.75724638  0.52955882     0.18300
C2465       C  0.13661251  0.59384289  0.43305976    -0.26900
C2466       C  0.14687845  0.59798382  0.41502168     0.06700
C2467       C  0.15721538  0.61638383  0.41288795     0.26300
C2468       C  0.15672545  0.63058470  0.42843679    -0.11400
C2469       C  0.14581320  0.62669863  0.44622236    -0.25400
C2470       C  0.13607918  0.60796655  0.44853353     0.37100
C2471       C  0.14580333  0.58326479  0.39838204     0.06700
F2472       F  0.16695778  0.62101864  0.39546500    -0.19200
H2473       H  0.16427898  0.64490944  0.42627044     0.16500
F2474       F  0.12604023  0.60322358  0.46576503    -0.22900
H2475       H  0.12882333  0.57962275  0.43509834     0.18300
C2476       C  0.16335811  0.57572482  0.38911586     0.26300
C2477       C  0.16188167  0.56108662  0.37408181    -0.11400
C2478       C  0.14293919  0.55352246  0.36830880    -0.25400
C2479       C  0.12538549  0.56125446  0.37747697     0.37200
C2480       C  0.12686946  0.57601488  0.39229887    -0.27100
F2481       F  0.18192554  0.58184073  0.39519391    -0.19200
H2482       H  0.17561723  0.55521415  0.36737278     0.16500
F2483       F  0.10676030  0.55472853  0.37200078    -0.22900
H2484       H  0.11315398  0.58176540  0.39916319     0.18300
C2485       C  0.22916566  0.73797761  0.52388017    -0.26900
C2486       C  0.24001391  0.74315212  0.50630886     0.06700
C2487       C  0.23543705  0.73252488  0.48850626     0.26300
C2488       C  0.21978786  0.71809126  0.48818116    -0.11400
C2489       C  0.20826144  0.71365301  0.50556134    -0.25400
C2490       C  0.21355073  0.72360052  0.52358370     0.37100
C2491       C  0.25474682  0.76059685  0.50648441     0.06700
F2492       F  0.24528941  0.73684893  0.47107700    -0.19200
H2493       H  0.21626194  0.71083141  0.47402169     0.16500
F2494       F  0.20311157  0.72015303  0.54087144    -0.22900
H2495       H  0.23248969  0.74549100  0.53795670     0.18300
C2496       C  0.24926130  0.77903804  0.51548078     0.26300
C2497       C  0.26247539  0.79555951  0.51534867    -0.11400
C2498       C  0.28176333  0.79453158  0.50631315    -0.25400
C2499       C  0.28748870  0.77601521  0.49749240     0.37200
C2500       C  0.27410319  0.75935052  0.49752164    -0.27100
F2501       F  0.23067706  0.78145803  0.52382341    -0.19200
H2502       H  0.25734722  0.80944066  0.52225350     0.16500
F2503       F  0.30574409  0.77412263  0.48836451    -0.22900
H2504       H  0.27893098  0.74540137  0.49055254     0.18300
C2505       C  0.02351464  0.69445439  0.49277955    -0.26900
C2506       C  0.01231253  0.67707485  0.49768168     0.06700
C2507       C  0.02330022  0.65945901  0.50290130     0.26300
C2508       C  0.04468699  0.65938485  0.50312615    -0.11400
C2509       C  0.05586071  0.67687434  0.49836170    -0.25400
C2510       C  0.04479484  0.69446456  0.49320209     0.37100
C2511       C  0.98938639  0.67753441  0.49715101     0.06700
F2512       F  0.01339127  0.64239583  0.50838954    -0.19200
H2513       H  0.05251696  0.64562511  0.50735376     0.16500
F2514       F  0.05448912  0.71179721  0.48821133    -0.22900
H2515       H  0.01575802  0.70817324  0.48829142     0.18300
C2516       C  0.97829835  0.69391317  0.50516986     0.26300
C2517       C  0.95702456  0.69447704  0.50410906    -0.11400
C2518       C  0.94596387  0.67864640  0.49536598    -0.25400
C2519       C  0.95697728  0.66226299  0.48734469     0.37200
C2520       C  0.97830163  0.66180412  0.48817696    -0.27100
F2521       F  0.98795526  0.70922050  0.51461344    -0.19200
H2522       H  0.94912860  0.70726076  0.51055559     0.16500
F2523       F  0.94719094  0.64689853  0.47813186    -0.22900
H2524       H  0.98619130  0.64919151  0.48142491     0.18300
C2525       C  0.07769943  0.74327796  0.39543468    -0.26900
C2526       C  0.09542468  0.75472751  0.39653379     0.06700
C2527       C  0.09655409  0.77344638  0.38683829     0.26300
C2528       C  0.07953566  0.78130480  0.37723339    -0.11400
C2529       C  0.06111692  0.77074815  0.37774540    -0.25400
C2530       C  0.06052137  0.75126553  0.38622241     0.37100
C2531       C  0.11052203  0.74899821  0.41151131     0.06700
F2532       F  0.11357578  0.78473960  0.38810723    -0.19200
H2533       H  0.08038181  0.79631939  0.37082279     0.16500
F2534       F  0.04312539  0.74046279  0.38669238    -0.22900
H2535       H  0.07671094  0.72886630  0.40313836     0.18300
C2536       C  0.10956680  0.75798703  0.43057160     0.26300
C2537       C  0.11909495  0.74882195  0.44688131    -0.11400
C2538       C  0.12962896  0.73063820  0.44426876    -0.25400
C2539       C  0.13273608  0.72313998  0.42462854     0.37200
C2540       C  0.12284877  0.73215805  0.40836514    -0.27100
F2541       F  0.09751415  0.77427263  0.43381757    -0.19200
H2542       H  0.11679769  0.75503339  0.46178362     0.16500
F2543       F  0.14343193  0.70593939  0.42136375    -0.22900
H2544       H  0.12362175  0.72519967  0.39364435     0.18300
C2545       C  0.92446776  0.73633331  0.38297055    -0.26900
C2546       C  0.90604348  0.74687373  0.38263852     0.06700
C2547       C  0.90461170  0.76543546  0.37263844     0.26300
C2548       C  0.92199717  0.77445575  0.36511103    -0.11400
C2549       C  0.94096611  0.76524476  0.36805565    -0.25400
C2550       C  0.94198411  0.74554178  0.37587012     0.37100
C2551       C  0.89104606  0.74155192  0.39785655     0.06700
F2552       F  0.88688769  0.77580827  0.37229225    -0.19200
H2553       H  0.92079973  0.78954488  0.35887406     0.16500
F2554       F  0.95998077  0.73589014  0.37813510    -0.22900
H2555       H  0.92568983  0.72199391  0.39079312     0.18300
C2556       C  0.88122912  0.72292386  0.39731138     0.26300
C2557       C  0.87247019  0.71525650  0.41482941    -0.11400
C2558       C  0.87403519  0.72591792  0.43305085    -0.25400
C2559       C  0.88220462  0.74541469  0.43303365     0.37200
C2560       C  0.89051148  0.75322879  0.41542094    -0.27100
F2561       F  0.88163883  0.71152447  0.38037819    -0.19200
H2562       H  0.86611048  0.70022963  0.41451731     0.16500
F2563       F  0.88342371  0.75630415  0.45026625    -0.22900
H2564       H  0.89824465  0.76759637  0.41598282     0.18300
C2565       C  0.06786500  0.89599302  0.33439476    -0.26900
C2566       C  0.07295361  0.90737864  0.35146652     0.06700
C2567       C  0.06347515  0.90290013  0.36994937     0.26300
C2568       C  0.04986341  0.88692477  0.37141699    -0.11400
C2569       C  0.04547229  0.87492435  0.35460526    -0.25400
C2570       C  0.05424671  0.87991365  0.33588620     0.37100
C2571       C  0.08874272  0.92324670  0.35029922     0.06700
F2572       F  0.06810955  0.91329403  0.38689539    -0.19200
H2573       H  0.04331466  0.88348045  0.38600684     0.16500
F2574       F  0.04961498  0.86937375  0.31902920    -0.22900
H2575       H  0.07457405  0.89947590  0.31988892     0.18300
C2576       C  0.10768282  0.91921603  0.34147086     0.26300
C2577       C  0.12313154  0.93354158  0.34228565    -0.11400
C2578       C  0.12015703  0.95198182  0.35220783    -0.25400
C2579       C  0.10098892  0.95630576  0.36040237     0.37200
C2580       C  0.08544677  0.94213205  0.35925867    -0.27100
F2581       F  0.11169985  0.90097709  0.33314045    -0.19200
H2582       H  0.13777829  0.92976532  0.33600364     0.16500
F2583       F  0.09729178  0.97411920  0.36974582    -0.22900
H2584       H  0.07087708  0.94576615  0.36579334     0.18300
C2585       C  0.92208046  0.89232365  0.37231244    -0.26900
C2586       C  0.91671539  0.90052521  0.35352914     0.06700
C2587       C  0.92565274  0.89272504  0.33596476     0.26300
C2588       C  0.93969839  0.87688984  0.33730434    -0.11400
C2589       C  0.94524584  0.86886701  0.35617608    -0.25400
C2590       C  0.93617577  0.87668427  0.37368694     0.37100
C2591       C  0.90183669  0.91723484  0.35271453     0.06700
F2592       F  0.92130952  0.90085410  0.31764209    -0.19200
H2593       H  0.94663406  0.87124968  0.32364020     0.16500
F2594       F  0.94062179  0.86894987  0.39215659    -0.22900
H2595       H  0.91519059  0.89799132  0.38599482     0.18300
C2596       C  0.88400510  0.91563269  0.34134454     0.26300
C2597       C  0.86923763  0.93075631  0.34235365    -0.11400
C2598       C  0.87192759  0.94763535  0.35482537    -0.25400
C2599       C  0.89012178  0.94947470  0.36568966     0.37200
C2600       C  0.90483862  0.93438113  0.36463260    -0.27100
F2601       F  0.88038105  0.89896303  0.33013483    -0.19200
H2602       H  0.85536754  0.92887957  0.33390451     0.16500
F2603       F  0.89369281  0.96574306  0.37750212    -0.22900
H2604       H  0.91855566  0.93592532  0.37340436     0.18300
C2605       C  0.98836040  0.75959785  0.26767737    -0.26900
C2606       C  0.00728312  0.75518778  0.25908122     0.06700
C2607       C  0.02421404  0.76604857  0.26589798     0.26300
C2608       C  0.02239409  0.77994338  0.28176040    -0.11400
C2609       C  0.00363167  0.78362318  0.29114108    -0.25400
C2610       C  0.98648236  0.77355726  0.28347722     0.37100
C2611       C  0.00939995  0.73817058  0.24435847     0.06700
F2612       F  0.04262321  0.76305208  0.25736496    -0.19200
H2613       H  0.03587407  0.78750093  0.28704236     0.16500
F2614       F  0.96799801  0.77627276  0.29193427    -0.22900
H2615       H  0.97506163  0.75148275  0.26277170     0.18300
C2616       C  0.02315036  0.72231277  0.24806856     0.26300
C2617       C  0.02372476  0.70536945  0.23550324    -0.11400
C2618       C  0.01082722  0.70373215  0.21871214    -0.25400
C2619       C  0.99752469  0.71988115  0.21454359     0.37200
C2620       C  0.99671232  0.73677507  0.22736164    -0.27100
F2621       F  0.03531202  0.72263046  0.26453568    -0.19200
H2622       H  0.03410187  0.69319952  0.23921663     0.16500
F2623       F  0.98455692  0.71888274  0.19874592    -0.22900
H2624       H  0.98589642  0.74870501  0.22417634     0.18300
C2625       C  0.06415998  0.73097768  0.61250304    -0.26900
C2626       C  0.08364218  0.73929866  0.61271388     0.06700
C2627       C  0.08698325  0.75768994  0.62248453     0.26300
C2628       C  0.07058265  0.76896266  0.62920005    -0.11400
C2629       C  0.05080817  0.76189537  0.62634378    -0.25400
C2630       C  0.04771796  0.74222556  0.61931326     0.37100
C2631       C  0.09841936  0.73196099  0.59797706     0.06700
F2632       F  0.10580883  0.76573993  0.62334813    -0.19200
H2633       H  0.07323784  0.78392919  0.63514380     0.16500
F2634       F  0.02877690  0.73494084  0.61657508    -0.22900
H2635       H  0.06133029  0.71680948  0.60489026     0.18300
C2636       C  0.10344517  0.71143662  0.59681970     0.26300
C2637       C  0.11373869  0.70422627  0.57998346    -0.11400
C2638       C  0.11851002  0.71730101  0.56394332    -0.25400
C2639       C  0.11415725  0.73792946  0.56546195     0.37200
C2640       C  0.10440231  0.74520128  0.58249813    -0.27100
F2641       F  0.09739000  0.69829303  0.61136224    -0.19200
H2642       H  0.11680446  0.68816889  0.57888437     0.16500
F2643       F  0.11859042  0.75086955  0.55016554    -0.22900
H2644       H  0.10017261  0.76105566  0.58291831     0.18300
C2645       C  0.89837506  0.78030018  0.60869645    -0.26900
C2646       C  0.89952812  0.76007467  0.60297796     0.06700
C2647       C  0.91572101  0.74795957  0.60952377     0.26300
C2648       C  0.93176915  0.75663274  0.61977301    -0.11400
C2649       C  0.93185360  0.77745857  0.62321705    -0.25400
C2650       C  0.91438107  0.78897496  0.61905606     0.37100
C2651       C  0.88714130  0.75287845  0.58636450     0.06700
F2652       F  0.91733113  0.72844545  0.60357112    -0.19200
H2653       H  0.94500378  0.74749306  0.62293554     0.16500
F2654       F  0.91356044  0.80899118  0.62327765    -0.22900
H2655       H  0.88590915  0.78969412  0.60369112     0.18300
C2656       C  0.87541128  0.73554296  0.58871993     0.26300
C2657       C  0.86905392  0.72507444  0.57177710    -0.11400
C2658       C  0.87466826  0.73166138  0.55235707    -0.25400
C2659       C  0.88496191  0.75006849  0.55008274     0.37200
C2660       C  0.89101912  0.76064132  0.56706572    -0.27100
F2661       F  0.87162268  0.72791238  0.60736607    -0.19200
H2662       H  0.86089685  0.71107247  0.57397846     0.16500
F2663       F  0.89037652  0.75718190  0.53162763    -0.22900
H2664       H  0.90031841  0.77398153  0.56515314     0.18300
C2665       C  0.92560808  0.89528334  0.66652332    -0.26900
C2666       C  0.92168327  0.90828444  0.65020610     0.06700
C2667       C  0.93300688  0.90610837  0.63238625     0.26300
C2668       C  0.94715683  0.89052864  0.63057145    -0.11400
C2669       C  0.95055496  0.87695866  0.64656028    -0.25400
C2670       C  0.93990447  0.87969486  0.66474681     0.37100
C2671       C  0.90435698  0.92254889  0.65078340     0.06700
F2672       F  0.92996402  0.91877615  0.61650771    -0.19200
H2673       H  0.95526271  0.88886932  0.61648359     0.16500
F2674       F  0.94229532  0.86651854  0.68029699    -0.22900
H2675       H  0.91688478  0.89658299  0.68027665     0.18300
C2676       C  0.88910464  0.92094794  0.63621779     0.26300
C2677       C  0.87331271  0.93483778  0.63563215    -0.11400
C2678       C  0.87215370  0.95073688  0.64956343    -0.25400
C2679       C  0.88689846  0.95186762  0.66483339     0.37200
C2680       C  0.90289765  0.93779501  0.66541537    -0.27100
F2681       F  0.88947104  0.90585483  0.62245623    -0.19200
H2682       H  0.86197632  0.93318331  0.62398906     0.16500
F2683       F  0.88632678  0.96691231  0.67861644    -0.22900
H2684       H  0.91443368  0.93912148  0.67689843     0.18300
C2685       C  0.08058414  0.88519991  0.63214482    -0.26900
C2686       C  0.08511326  0.89303906  0.65115255     0.06700
C2687       C  0.07343295  0.88725183  0.66789202     0.26300
C2688       C  0.05738931  0.87376493  0.66550484    -0.11400
C2689       C  0.05279275  0.86594169  0.64638913    -0.25400
C2690       C  0.06461897  0.87187100  0.62968426     0.37100
C2691       C  0.10107287  0.90840280  0.65273888     0.06700
F2692       F  0.07769052  0.89447576  0.68651123    -0.19200
H2693       H  0.04867728  0.86934308  0.67862354     0.16500
F2694       F  0.06060605  0.86517607  0.61079832    -0.22900
H2695       H  0.08914842  0.88985673  0.61899598     0.18300
C2696       C  0.12028044  0.90490246  0.64436603     0.26300
C2697       C  0.13405308  0.92068600  0.64264975    -0.11400
C2698       C  0.12901481  0.94003666  0.64955615    -0.25400
C2699       C  0.11020994  0.94334161  0.65875863     0.37200
C2700       C  0.09631157  0.92758939  0.66027869    -0.27100
F2701       F  0.12549049  0.88635951  0.63740974    -0.19200
H2702       H  0.14859884  0.91788797  0.63564614     0.16500
F2703       F  0.10475808  0.96207079  0.66493570    -0.22900
H2704       H  0.08142054  0.93063331  0.66639521     0.18300
C2705       C  0.01541077  0.82628429  0.52142100    -0.26900
C2706       C  0.99843754  0.81913505  0.51083430     0.06700
C2707       C  0.98159595  0.81280306  0.52223809     0.26300
C2708       C  0.98165786  0.81394907  0.54348294    -0.11400
C2709       C  0.99868499  0.82091420  0.55413989    -0.25400
C2710       C  0.01570117  0.82690873  0.54271815     0.37100
C2711       C  0.99835578  0.81824553  0.48805192     0.06700
F2712       F  0.96485189  0.80582844  0.51279237    -0.19200
H2713       H  0.96834945  0.80905348  0.55167617     0.16500
F2714       F  0.03254378  0.83375270  0.55209247    -0.22900
H2715       H  0.02866072  0.83118149  0.51313184     0.18300
C2716       C  0.00103173  0.83572921  0.47615617     0.26300
C2717       C  0.00076085  0.83476355  0.45488907    -0.11400
C2718       C  0.99803606  0.81632741  0.44467760    -0.25400
C2719       C  0.99542927  0.79878640  0.45669380     0.37200
C2720       C  0.99545931  0.79983862  0.47796521    -0.27100
F2721       F  0.00343080  0.85391938  0.48511765    -0.19200
H2722       H  0.00276738  0.84861000  0.44636679     0.16500
F2723       F  0.99274208  0.78051308  0.44798384    -0.22900
H2724       H  0.99340058  0.78608863  0.48665012     0.18300
C2725       C  0.60163517  0.42620696  0.85729590    -0.26900
C2726       C  0.59852041  0.41935028  0.83759175     0.06700
C2727       C  0.60852949  0.42906910  0.82158209     0.26300
C2728       C  0.62189362  0.44503388  0.82547282    -0.11400
C2729       C  0.62547888  0.45148369  0.84536660    -0.25400
C2730       C  0.61492776  0.44194219  0.86123287     0.37100
C2731       C  0.58514438  0.40169438  0.83457618     0.06700
F2732       F  0.60604932  0.42259872  0.80237428    -0.19200
H2733       H  0.62988951  0.45194135  0.81296600     0.16500
F2734       F  0.61753050  0.44757949  0.88070394    -0.22900
H2735       H  0.59382868  0.41911204  0.86983661     0.18300
C2736       C  0.58864523  0.38403201  0.84584732     0.26300
C2737       C  0.57388427  0.36915859  0.84708502    -0.11400
C2738       C  0.55531809  0.37142102  0.83705818    -0.25400
C2739       C  0.55256209  0.38809530  0.82407495     0.37200
C2740       C  0.56741302  0.40321957  0.82295743    -0.27100
F2741       F  0.60592534  0.38171163  0.85666227    -0.19200
H2742       H  0.57661286  0.35620595  0.85676778     0.16500
F2743       F  0.53497311  0.39061597  0.81384448    -0.22900
H2744       H  0.56447796  0.41670354  0.81411377     0.18300
C2745       C  0.60602942  0.43048753  0.16452844    -0.26900
C2746       C  0.59474815  0.42581529  0.14722744     0.06700
C2747       C  0.59683895  0.43794679  0.12992082     0.26300
C2748       C  0.61138734  0.45307024  0.12928485    -0.11400
C2749       C  0.62388796  0.45669488  0.14597221    -0.25400
C2750       C  0.62051600  0.44588682  0.16396462     0.37100
C2751       C  0.58217481  0.40737529  0.14656663     0.06700
F2752       F  0.58529914  0.43468733  0.11333787    -0.19200
H2753       H  0.61339292  0.46151504  0.11540507     0.16500
F2754       F  0.63224257  0.44905214  0.18041253    -0.22900
H2755       H  0.60446558  0.42144681  0.17808058     0.18300
C2756       C  0.58482618  0.39340199  0.13089767     0.26300
C2757       C  0.57242710  0.37650734  0.12957969    -0.11400
C2758       C  0.55722102  0.37298062  0.14394493    -0.25400
C2759       C  0.55524481  0.38644514  0.16026036     0.37200
C2760       C  0.56763566  0.40349832  0.16148252    -0.27100
F2761       F  0.59954091  0.39601846  0.11685935    -0.19200
H2762       H  0.57461947  0.36629140  0.11708041     0.16500
F2763       F  0.54097992  0.38356721  0.17469475    -0.22900
H2764       H  0.56554977  0.41394557  0.17380860     0.18300
C2765       C  0.76827130  0.51821798  0.25960916    -0.26900
C2766       C  0.75859099  0.49968435  0.25620132     0.06700
C2767       C  0.76558689  0.48260431  0.26692775     0.26300
C2768       C  0.78229911  0.48394289  0.27996696    -0.11400
C2769       C  0.79262544  0.50229638  0.28267914    -0.25400
C2770       C  0.78506671  0.51956689  0.27254533     0.37100
C2771       C  0.74306315  0.49787994  0.23974473     0.06700
F2772       F  0.75648738  0.46445581  0.26452037    -0.19200
H2773       H  0.78751736  0.47037599  0.28752194     0.16500
F2774       F  0.79451808  0.53762500  0.27417624    -0.22900
H2775       H  0.76348328  0.53155462  0.25138600     0.18300
C2776       C  0.72642897  0.51122218  0.23803379     0.26300
C2777       C  0.71369157  0.51078330  0.22092416    -0.11400
C2778       C  0.71747689  0.49725701  0.20504769    -0.25400
C2779       C  0.73349946  0.48333145  0.20733430     0.37200
C2780       C  0.74596468  0.48360680  0.22442428    -0.27100
F2781       F  0.72270060  0.52490615  0.25273407    -0.19200
H2782       H  0.70154486  0.52168067  0.21963039     0.16500
F2783       F  0.73750358  0.46967094  0.19267758    -0.22900
H2784       H  0.75858386  0.47320654  0.22518911     0.18300
C2785       C  0.66537149  0.48595467  0.01961152    -0.26900
C2786       C  0.67029636  0.50345068  0.00840653     0.06700
C2787       C  0.67641818  0.52057810  0.01944226     0.26300
C2788       C  0.67771553  0.52003316  0.04068303    -0.11400
C2789       C  0.67319736  0.50242207  0.05182383    -0.25400
C2790       C  0.66695988  0.48531880  0.04083806     0.37100
C2791       C  0.66945527  0.50357797  0.98546015     0.06700
F2792       F  0.68187582  0.53778785  0.00973798    -0.19200
H2793       H  0.68263657  0.53349980  0.04843757     0.16500
F2794       F  0.66218439  0.46790072  0.05054579    -0.22900
H2795       H  0.66007929  0.47259752  0.01193331     0.18300
C2796       C  0.67610858  0.48682548  0.97408816     0.26300
C2797       C  0.67558902  0.48713643  0.95284866    -0.11400
C2798       C  0.66887338  0.50422763  0.94201234    -0.25400
C2799       C  0.66219052  0.52100217  0.95324845     0.37200
C2800       C  0.66227262  0.52054431  0.97456345    -0.27100
F2801       F  0.68396333  0.47030051  0.98340234    -0.19200
H2802       H  0.68109526  0.47403268  0.94480474     0.16500
F2803       F  0.65524815  0.53779082  0.94367209    -0.22900
H2804       H  0.65653047  0.53356492  0.98254802     0.18300
C2805       C  0.76853380  0.37826151  0.09477189    -0.26900
C2806       C  0.75015334  0.38835773  0.09186648     0.06700
C2807       C  0.74157149  0.38930696  0.07248650     0.26300
C2808       C  0.75225941  0.38198890  0.05601684    -0.11400
C2809       C  0.77156887  0.37361096  0.05862370    -0.25400
C2810       C  0.77916593  0.37072648  0.07828583     0.37100
C2811       C  0.74257248  0.40216795  0.10733491     0.06700
F2812       F  0.72398446  0.39940999  0.06912531    -0.19200
H2813       H  0.74594916  0.38406097  0.04106035     0.16500
F2814       F  0.79764670  0.36236658  0.08149427    -0.22900
H2815       H  0.77534444  0.37758728  0.10962323     0.18300
C2816       C  0.72201113  0.40238406  0.11230838     0.26300
C2817       C  0.71328269  0.42002827  0.11955823    -0.11400
C2818       C  0.72500188  0.43754791  0.12190382    -0.25400
C2819       C  0.74610671  0.43623906  0.11995690     0.37200
C2820       C  0.75480605  0.41855307  0.11267022    -0.27100
F2821       F  0.71006239  0.38636762  0.10798387     0.00000
H2822       H  0.69703422  0.42040594  0.12180377     0.16500
F2823       F  0.75806506  0.45255022  0.12293301    -0.22900
H2824       H  0.77081086  0.41851173  0.10902750     0.18300
C2825       C  0.71978315  0.40352220  0.88856303    -0.26900
C2826       C  0.74031810  0.40391885  0.89348085     0.06700
C2827       C  0.75192052  0.42098284  0.88855692     0.26300
C2828       C  0.74251211  0.43829014  0.88099368    -0.11400
C2829       C  0.72147996  0.43873221  0.87837795    -0.25400
C2830       C  0.71034304  0.42079001  0.88107390     0.37100
C2831       C  0.74822405  0.38948009  0.90835489     0.06700
F2832       F  0.77186356  0.42175077  0.89330345    -0.19200
H2833       H  0.75145012  0.45176897  0.87872741     0.16500
F2834       F  0.69009690  0.42023018  0.87780590    -0.22900
H2835       H  0.71073280  0.39041369  0.89221454     0.18300
C2836       C  0.73987886  0.38957612  0.92783597     0.26300
C2837       C  0.75076180  0.38157645  0.94389589    -0.11400
C2838       C  0.76993977  0.37317084  0.94071538    -0.25400
C2839       C  0.77708646  0.37068668  0.92084865     0.37200
C2840       C  0.76633038  0.37910211  0.90476176    -0.27100
F2841       F  0.72231360  0.39947330  0.93173282    -0.19200
H2842       H  0.74475543  0.38317468  0.95899738     0.16500
F2843       F  0.79526385  0.36190249  0.91710869    -0.22900
H2844       H  0.77280878  0.37882987  0.88976980     0.18300
C2845       C  0.90122387  0.33424599  0.06769187    -0.26900
C2846       C  0.91078737  0.35150001  0.07534342     0.06700
C2847       C  0.90392584  0.37065987  0.06909315     0.26300
C2848       C  0.88797904  0.37247943  0.05544430    -0.11400
C2849       C  0.87817339  0.35531165  0.04804262    -0.25400
C2850       C  0.88497393  0.33609250  0.05422963     0.37100
C2851       C  0.92742851  0.34979669  0.09030411     0.06700
F2852       F  0.91210906  0.38771068  0.07681013    -0.19200
H2853       H  0.88289560  0.38742966  0.05109230     0.16500
F2854       F  0.87621391  0.31912571  0.04697655    -0.22900
H2855       H  0.90636934  0.31934367  0.07211098     0.18300
C2856       C  0.92520753  0.33816494  0.10796555     0.26300
C2857       C  0.93963994  0.33928805  0.12334105    -0.11400
C2858       C  0.95648279  0.35207074  0.12145436    -0.25400
C2859       C  0.95939339  0.36255201  0.10315490     0.37200
C2860       C  0.94503051  0.36132836  0.08778196    -0.27100
F2861       F  0.90845709  0.32677351  0.11097955    -0.19200
H2862       H  0.93706291  0.33090263  0.13715283     0.16500
F2863       F  0.97584354  0.37439754  0.10022516    -0.22900
H2864       H  0.94734551  0.36996032  0.07407098     0.18300
C2865       C  0.76745795  0.26631636  0.98358877    -0.26900
C2866       C  0.75751996  0.26068458  0.00154640     0.06700
C2867       C  0.76315051  0.27067216  0.01943327     0.26300
C2868       C  0.77768328  0.28615687  0.01908742    -0.11400
C2869       C  0.78688877  0.29243473  0.00093864    -0.25400
C2870       C  0.78168922  0.28203038  0.98316940     0.37100
C2871       C  0.74082854  0.24516867  0.00126915     0.06700
F2872       F  0.75381532  0.26633479  0.03714575    -0.19200
H2873       H  0.78105785  0.29388611  0.03304716     0.16500
F2874       F  0.78994788  0.28730491  0.96517776    -0.22900
H2875       H  0.76398866  0.25868393  0.96960531     0.18300
C2876       C  0.72615237  0.24521636  0.98581886     0.26300
C2877       C  0.71042054  0.23105016  0.98575699    -0.11400
C2878       C  0.70835477  0.21665231  0.00129542    -0.25400
C2879       C  0.72297095  0.21651788  0.01678098     0.37200
C2880       C  0.73906210  0.23041858  0.01658983    -0.27100
F2881       F  0.72632848  0.25961500  0.97119796    -0.19200
H2882       H  0.69927429  0.23193521  0.97380923     0.16500
F2883       F  0.72174269  0.20299898  0.03216695    -0.22900
H2884       H  0.75018212  0.22962243  0.02855349     0.18300
C2885       C  0.76240043  0.57753822  0.11045340    -0.26900
C2886       C  0.75091201  0.59535819  0.10891742     0.06700
C2887       C  0.73151275  0.59612648  0.11720538     0.26300
C2888       C  0.72277680  0.57857946  0.12468755    -0.11400
C2889       C  0.73315410  0.56003937  0.12351940    -0.25400
C2890       C  0.75353081  0.55980984  0.11769097     0.37100
C2891       C  0.75647740  0.61001867  0.09335067     0.06700
F2892       F  0.72017774  0.61318761  0.11571050    -0.19200
H2893       H  0.70718833  0.57913487  0.12957518     0.16500
F2894       F  0.76396364  0.54219016  0.11649579    -0.22900
H2895       H  0.77732613  0.57678702  0.10384126     0.18300
C2896       C  0.77352646  0.62225088  0.09532951     0.26300
C2897       C  0.78167875  0.63158969  0.07826834    -0.11400
C2898       C  0.77303816  0.62833765  0.05914426    -0.25400
C2899       C  0.75473473  0.61782202  0.05769511     0.37200
C2900       C  0.74651272  0.60876619  0.07475192    -0.27100
F2901       F  0.78297470  0.62400808  0.11338734    -0.19200
H2902       H  0.79564293  0.63984188  0.07978620     0.16500
F2903       F  0.74557492  0.61503805  0.03961756    -0.22900
H2904       H  0.73329544  0.59938344  0.07313492     0.18300
C2905       C  0.75048392  0.61115701  0.92070153    -0.26900
C2906       C  0.76257653  0.60597681  0.90412470     0.06700
C2907       C  0.78296333  0.61160305  0.90372647     0.26300
C2908       C  0.79155469  0.62054191  0.92064146    -0.11400
C2909       C  0.77991420  0.62368120  0.93810918    -0.25400
C2910       C  0.75908596  0.61986346  0.93768425     0.37100
C2911       C  0.75470724  0.59094720  0.89006194     0.06700
F2912       F  0.79478502  0.60713836  0.88761142    -0.19200
H2913       H  0.80762607  0.62366506  0.92057163     0.16500
F2914       F  0.74726741  0.62364291  0.95397298    -0.22900
H2915       H  0.73467969  0.60689345  0.92116247     0.18300
C2916       C  0.76236780  0.57115596  0.89106267     0.26300
C2917       C  0.75095391  0.55518292  0.88370325    -0.11400
C2918       C  0.73176060  0.55880551  0.87550926    -0.25400
C2919       C  0.72517118  0.57881506  0.87246901     0.37200
C2920       C  0.73660607  0.59479585  0.87980851    -0.27100
F2921       F  0.77961381  0.56700268  0.90139610    -0.19200
H2922       H  0.75631755  0.53989946  0.88607922     0.16500
F2923       F  0.70713931  0.58284205  0.86353097    -0.22900
H2924       H  0.73059067  0.60999340  0.87894759     0.18300
C2925       C  0.90061175  0.63083911  0.07744099    -0.26900
C2926       C  0.90285429  0.64886291  0.08813954     0.06700
C2927       C  0.89050756  0.66545456  0.08320825     0.26300
C2928       C  0.87601608  0.66384936  0.06785864    -0.11400
C2929       C  0.87372964  0.64572237  0.05709656    -0.25400
C2930       C  0.88627791  0.62918767  0.06215194     0.37100
C2931       C  0.91786592  0.64969272  0.10466185     0.06700
F2932       F  0.89209008  0.68297481  0.09357834    -0.19200
H2933       H  0.86658306  0.67679280  0.06442152     0.16500
F2934       F  0.88462888  0.61121649  0.05258070    -0.22900
H2935       H  0.91004632  0.61791428  0.08098614     0.18300
C2936       C  0.91724636  0.63524300  0.12018586     0.26300
C2937       C  0.93261439  0.63430679  0.13449217    -0.11400
C2938       C  0.94901184  0.64772910  0.13371852    -0.25400
C2939       C  0.94931174  0.66273193  0.11858525     0.37200
C2940       C  0.93378301  0.66368110  0.10418349    -0.27100
F2941       F  0.90185003  0.62179602  0.12135545    -0.19200
H2942       H  0.93177300  0.62278604  0.14609467     0.16500
F2943       F  0.96500005  0.67579558  0.11708500    -0.22900
H2944       H  0.93458986  0.67479795  0.09219883     0.18300
C2945       C  0.80674919  0.47888073  0.00368222    -0.26900
C2946       C  0.82416370  0.48950426  0.99755132     0.06700
C2947       C  0.84102647  0.47782878  0.99145785     0.26300
C2948       C  0.84043337  0.45645449  0.99178834    -0.11400
C2949       C  0.82296052  0.44586725  0.99788602    -0.25400
C2950       C  0.80603280  0.45758352  0.00371846     0.37100
C2951       C  0.82452656  0.51251733  0.99770723     0.06700
F2952       F  0.85797052  0.48704271  0.98454983    -0.19200
H2953       H  0.85368828  0.44814535  0.98693351     0.16500
F2954       F  0.78871709  0.44851190  0.00985715    -0.22900
H2955       H  0.79355069  0.48712191  0.00879379     0.18300
C2956       C  0.80796418  0.52408766  0.99062818     0.26300
C2957       C  0.80802264  0.54537739  0.99162602    -0.11400
C2958       C  0.82464101  0.55611466  0.99942643    -0.25400
C2959       C  0.84136879  0.54460592  0.00620542     0.37200
C2960       C  0.84122336  0.52324745  0.00541137    -0.27100
F2961       F  0.79177213  0.51486391  0.98221741    -0.19200
H2962       H  0.79495044  0.55353730  0.98600555     0.16500
F2963       F  0.85773736  0.55392048  0.01415120    -0.22900
H2964       H  0.85414965  0.51504758  0.01128284     0.18300
C2965       C  0.56692335  0.60423210  0.82717686    -0.26900
C2966       C  0.57401336  0.59320740  0.84387484     0.06700
C2967       C  0.56432389  0.59546635  0.86258635     0.26300
C2968       C  0.54916723  0.60984456  0.86498682    -0.11400
C2969       C  0.54312797  0.62211774  0.84874878    -0.25400
C2970       C  0.55142685  0.61852456  0.82951868     0.37100
C2971       C  0.59274832  0.58102401  0.84273717     0.06700
F2972       F  0.57013046  0.58426948  0.87879615    -0.19200
H2973       H  0.54260935  0.61183089  0.87983619     0.16500
F2974       F  0.54553214  0.62964518  0.81330808    -0.22900
H2975       H  0.57411237  0.60255647  0.81258041     0.18300
C2976       C  0.59504936  0.56496741  0.82916130     0.26300
C2977       C  0.61193185  0.55212126  0.83064451    -0.11400
C2978       C  0.62667354  0.55524005  0.84562036    -0.25400
C2979       C  0.62491399  0.57230039  0.85810437     0.37200
C2980       C  0.60819730  0.58497373  0.85657547    -0.27100
F2981       F  0.58052204  0.56108056  0.81529217    -0.19200
H2982       H  0.61301084  0.53925917  0.82068168     0.16500
F2983       F  0.63910951  0.57659489  0.87220051    -0.22900
H2984       H  0.60698592  0.59767927  0.86674610     0.18300
C2985       C  0.39491984  0.56983636  0.82981552    -0.26900
C2986       C  0.40691489  0.57492432  0.84642348     0.06700
C2987       C  0.40438886  0.56463735  0.86476387     0.26300
C2988       C  0.38918298  0.55034998  0.86684203    -0.11400
C2989       C  0.37622106  0.54603627  0.85067070    -0.25400
C2990       C  0.37962991  0.55540781  0.83185847     0.37100
C2991       C  0.41993076  0.59281737  0.84576099     0.06700
F2992       F  0.41608866  0.56911173  0.88094006    -0.19200
H2993       H  0.38713677  0.54312083  0.88137744     0.16500
F2994       F  0.36741262  0.55169668  0.81588858    -0.22900
H2995       H  0.39666531  0.57782898  0.81564181     0.18300
C2996       C  0.43770646  0.59340195  0.83421009     0.26300
C2997       C  0.45065099  0.61002627  0.83563229    -0.11400
C2998       C  0.44589543  0.62602407  0.84864603    -0.25400
C2999       C  0.42756884  0.62572480  0.85936455     0.37200
C3000       C  0.41476877  0.60924067  0.85791832    -0.27100
F3001       F  0.44295670  0.57755679  0.82241778    -0.19200
H3002       H  0.46473743  0.61000611  0.82730485     0.16500
F3003       F  0.42211702  0.64131276  0.87143844    -0.22900
H3004       H  0.40092641  0.60906317  0.86666099     0.18300
C3005       C  0.56720137  0.59582218  0.13823568    -0.26900
C3006       C  0.58423162  0.59958541  0.15019940     0.06700
C3007       C  0.58491463  0.61736667  0.16165273     0.26300
C3008       C  0.56913929  0.63146923  0.16027206    -0.11400
C3009       C  0.55258963  0.62812955  0.14737330    -0.25400
C3010       C  0.55164960  0.60988722  0.13665220     0.37100
C3011       C  0.60165031  0.58558630  0.14879663     0.06700
F3012       F  0.60123836  0.62165215  0.17322925    -0.19200
H3013       H  0.57026805  0.64538840  0.16875318     0.16500
F3014       F  0.53592987  0.60569188  0.12424311    -0.22900
H3015       H  0.56619902  0.58202752  0.12951936     0.18300
C3016       C  0.61114677  0.57728217  0.16592299     0.26300
C3017       C  0.62640514  0.56274732  0.16367645    -0.11400
C3018       C  0.63235365  0.55631308  0.14438771    -0.25400
C3019       C  0.62300810  0.56497567  0.12732794     0.37200
C3020       C  0.60803203  0.57951248  0.12959803    -0.27100
F3021       F  0.60516919  0.58254293  0.18474790    -0.19200
H3022       H  0.63343537  0.55637815  0.17704716     0.16500
F3023       F  0.62776503  0.55897857  0.10835945    -0.22900
H3024       H  0.60105474  0.58582739  0.11617124     0.18300
C3025       C  0.38853115  0.57722346  0.16451633    -0.26900
C3026       C  0.40198750  0.58085308  0.14856828     0.06700
C3027       C  0.39946892  0.57043209  0.13036379     0.26300
C3028       C  0.38393901  0.55642622  0.12833668    -0.11400
C3029       C  0.37057576  0.55248501  0.14436973    -0.25400
C3030       C  0.37293821  0.56319652  0.16251255     0.37100
C3031       C  0.41840939  0.59574673  0.15072041     0.06700
F3032       F  0.41180228  0.57408024  0.11439629    -0.19200
H3033       H  0.38241374  0.54860619  0.11407359     0.16500
F3034       F  0.36052273  0.55986673  0.17846608    -0.22900
H3035       H  0.39029086  0.58512258  0.17872097     0.18300
C3036       C  0.41411635  0.61564508  0.15660204     0.26300
C3037       C  0.42940056  0.63009547  0.15664356    -0.11400
C3038       C  0.44907598  0.62505887  0.15051633    -0.25400
C3039       C  0.45361324  0.60492212  0.14563246     0.37200
C3040       C  0.43836548  0.59040913  0.14583113    -0.27100
F3041       F  0.39491334  0.62141638  0.16097038    -0.19200
H3042       H  0.42552587  0.64563166  0.16030704     0.16500
F3043       F  0.47265910  0.59938622  0.14034343    -0.22900
H3044       H  0.44204284  0.57495951  0.14164064     0.18300
C3045       C  0.51773809  0.76399184  0.26892111    -0.26900
C3046       C  0.50245234  0.76278201  0.25414568     0.06700
C3047       C  0.48717512  0.77765808  0.25424615     0.26300
C3048       C  0.48710856  0.79302033  0.26871117    -0.11400
C3049       C  0.50242124  0.79441386  0.28334521    -0.25400
C3050       C  0.51784819  0.77966127  0.28326186     0.37100
C3051       C  0.50242106  0.74638008  0.23848942     0.06700
F3052       F  0.47266311  0.77788834  0.23979445    -0.19200
H3053       H  0.47526651  0.80436474  0.26800496     0.16500
F3054       F  0.53284413  0.78017371  0.29719457    -0.22900
H3055       H  0.52962297  0.75269089  0.26943974     0.18300
C3056       C  0.51992228  0.74152773  0.22736235     0.26300
C3057       C  0.51915918  0.72734105  0.21166817    -0.11400
C3058       C  0.50097110  0.71759712  0.20647296    -0.25400
C3059       C  0.48363718  0.72196503  0.21807547     0.37200
C3060       C  0.48444650  0.73605197  0.23383961    -0.27100
F3061       F  0.53757759  0.75124734  0.23090757    -0.19200
H3062       H  0.53281413  0.72452549  0.20305837     0.16500
F3063       F  0.46574653  0.71289301  0.21405163    -0.22900
H3064       H  0.47077599  0.73909303  0.24235242     0.18300
C3065       C  0.49904083  0.65123158  0.02411816    -0.26900
C3066       C  0.49511425  0.66822509  0.01179599     0.06700
C3067       C  0.49137196  0.68672481  0.02148993     0.26300
C3068       C  0.49172477  0.68822986  0.04268372    -0.11400
C3069       C  0.49556982  0.67132307  0.05516953    -0.25400
C3070       C  0.49910018  0.65264973  0.04544975     0.37100
C3071       C  0.49487621  0.66694810  0.98897807     0.06700
F3072       F  0.48785415  0.70361542  0.01036860    -0.19200
H3073       H  0.48896413  0.70287386  0.04934871     0.16500
F3074       F  0.50278665  0.63573113  0.05647961    -0.22900
H3075       H  0.50188806  0.63672537  0.01719362     0.18300
C3076       C  0.51209139  0.66103983  0.97787935     0.26300
C3077       C  0.51214898  0.66174201  0.95653585    -0.11400
C3078       C  0.49492959  0.66793788  0.94548859    -0.25400
C3079       C  0.47750887  0.67324226  0.95670107     0.37200
C3080       C  0.47761724  0.67289920  0.97799715    -0.27100
F3081       F  0.52917578  0.65529251  0.98768546    -0.19200
H3082       H  0.52581912  0.65748076  0.94862185     0.16500
F3083       F  0.46040980  0.67938322  0.94715793    -0.22900
H3084       H  0.46410368  0.67749397  0.98600669     0.18300
C3085       C  0.61508697  0.76830090  0.08917612    -0.26900
C3086       C  0.60763901  0.74876178  0.08679919     0.06700
C3087       C  0.61122662  0.73821738  0.06883767     0.26300
C3088       C  0.61960009  0.74830387  0.05238116    -0.11400
C3089       C  0.62484835  0.76868861  0.05405978    -0.25400
C3090       C  0.62375080  0.77827776  0.07290065     0.37100
C3091       C  0.59124286  0.74218865  0.09992126     0.06700
F3092       F  0.60433448  0.71910464  0.06643462    -0.19200
H3093       H  0.62071071  0.74066721  0.03804164     0.16500
F3094       F  0.62857632  0.79805484  0.07496947    -0.22900
H3095       H  0.61222297  0.77652014  0.10294607     0.18300
C3096       C  0.59243154  0.72407028  0.11070072     0.26300
C3097       C  0.57518804  0.71648681  0.11996383    -0.11400
C3098       C  0.55654767  0.72664520  0.11802386    -0.25400
C3099       C  0.55567374  0.74532613  0.10807705     0.37200
C3100       C  0.57302306  0.75308608  0.09920414    -0.27100
F3101       F  0.60991076  0.71330565  0.11138010    -0.19200
H3102       H  0.57617181  0.70198846  0.12753507     0.16500
F3103       F  0.53801075  0.75566276  0.10626801    -0.22900
H3104       H  0.57198808  0.76706440  0.09069522     0.18300
C3105       C  0.61701934  0.76839880  0.89969082    -0.26900
C3106       C  0.60875586  0.74918887  0.90261666     0.06700
C3107       C  0.61048148  0.73965875  0.92152856     0.26300
C3108       C  0.61806663  0.75027552  0.93786684    -0.11400
C3109       C  0.62427277  0.77032672  0.93544672    -0.25400
C3110       C  0.62484056  0.77896490  0.91601440     0.37100
C3111       C  0.59365206  0.74157209  0.88844347     0.06700
F3112       F  0.60254620  0.72105015  0.92478796    -0.19200
H3113       H  0.61789602  0.74325797  0.95265216     0.16500
F3114       F  0.63085319  0.79832755  0.91312746    -0.22900
H3115       H  0.61567998  0.77589338  0.88519879     0.18300
C3116       C  0.57560933  0.75258744  0.88598397     0.26300
C3117       C  0.55816768  0.74286630  0.87964097    -0.11400
C3118       C  0.55855758  0.72211301  0.87581722    -0.25400
C3119       C  0.57723396  0.71180962  0.87553848     0.37200
C3120       C  0.59469399  0.72154520  0.88194163    -0.27100
F3121       F  0.57416212  0.77200020  0.89227728    -0.19200
H3122       H  0.54404436  0.75118878  0.87952939     0.16500
F3123       F  0.57840236  0.69202780  0.87042153    -0.22900
H3124       H  0.60858954  0.71298763  0.88356037     0.18300
C3125       C  0.63967716  0.90699934  0.05754365    -0.26900
C3126       C  0.64856846  0.90270013  0.07633512     0.06700
C3127       C  0.65634696  0.88322254  0.07993989     0.26300
C3128       C  0.65479314  0.86833808  0.06517950    -0.11400
C3129       C  0.64497113  0.87238983  0.04683878    -0.25400
C3130       C  0.63768895  0.89200382  0.04299334     0.37100
C3131       C  0.64766685  0.91797971  0.09258714     0.06700
F3132       F  0.66417973  0.87811928  0.09817080    -0.19200
H3133       H  0.66038988  0.85328902  0.06852144     0.16500
F3134       F  0.62852870  0.89668222  0.02525210    -0.22900
H3135       H  0.63374660  0.92194690  0.05431779     0.18300
C3136       C  0.66439693  0.92227742  0.10495045     0.26300
C3137       C  0.66262639  0.93634854  0.12054535    -0.11400
C3138       C  0.64428943  0.94658951  0.12385571    -0.25400
C3139       C  0.62765055  0.94231467  0.11133136     0.37200
C3140       C  0.62938836  0.92817613  0.09599840    -0.27100
F3141       F  0.68255710  0.91329088  0.10169336    -0.19200
H3142       H  0.67568470  0.93940514  0.12986361     0.16500
F3143       F  0.60944343  0.95141480  0.11407680    -0.22900
H3144       H  0.61619592  0.92492927  0.08693123     0.18300
C3145       C  0.73467729  0.76679069  0.97576032    -0.26900
C3146       C  0.74138530  0.75708402  0.99355127     0.06700
C3147       C  0.73162139  0.76239994  0.01173050     0.26300
C3148       C  0.71526763  0.77611984  0.01187227    -0.11400
C3149       C  0.70793420  0.78512155  0.99397802    -0.25400
C3150       C  0.71829996  0.78055603  0.97590328     0.37100
C3151       C  0.75783998  0.74100821  0.99307583     0.06700
F3152       F  0.73713756  0.75354254  0.02938543    -0.19200
H3153       H  0.70782922  0.77912815  0.02610556     0.16500
F3154       F  0.71247629  0.78912960  0.95820750    -0.22900
H3155       H  0.74207524  0.76362041  0.96154755     0.18300
C3156       C  0.75802846  0.72569732  0.97830209     0.26300
C3157       C  0.77245031  0.70995349  0.97893359    -0.11400
C3158       C  0.78703774  0.70870201  0.99439105    -0.25400
C3159       C  0.78735993  0.72434693  0.00870612     0.37200
C3160       C  0.77309601  0.74023962  0.00795195    -0.27100
F3161       F  0.74358679  0.72524353  0.96379325    -0.19200
H3162       H  0.77159550  0.69815413  0.96772498     0.16500
F3163       F  0.80152938  0.72433239  0.02348182    -0.22900
H3164       H  0.77393142  0.75196064  0.01922904     0.18300
C3165       C  0.37462725  0.76574052  0.09327138    -0.26900
C3166       C  0.38675080  0.74863381  0.09089502     0.06700
C3167       C  0.38863449  0.73963551  0.07188054     0.26300
C3168       C  0.38049132  0.74911984  0.05495583    -0.11400
C3169       C  0.37002804  0.76741941  0.05694898    -0.25400
C3170       C  0.36591962  0.77493836  0.07643506     0.37100
C3171       C  0.40132776  0.74300315  0.10648748     0.06700
F3172       F  0.40025470  0.72290006  0.06943193    -0.19200
H3173       H  0.38345136  0.74281866  0.04021281     0.16500
F3174       F  0.35516617  0.79219997  0.07915579    -0.22900
H3175       H  0.37313535  0.77275540  0.10790830     0.18300
C3176       C  0.41919040  0.75427724  0.10791761     0.26300
C3177       C  0.43636165  0.74566031  0.11655073    -0.11400
C3178       C  0.43569037  0.72593540  0.12420344    -0.25400
C3179       C  0.41709706  0.71561908  0.12488625     0.37200
C3180       C  0.40004224  0.72409367  0.11581285    -0.27100
F3181       F  0.42065427  0.77264052  0.09885857    -0.19200
H3182       H  0.45046732  0.75389488  0.11613194     0.16500
F3183       F  0.41590425  0.69649698  0.13222115    -0.22900
H3184       H  0.38637196  0.71524841  0.11456076     0.18300
C3185       C  0.38306411  0.74333259  0.92118019    -0.26900
C3186       C  0.38592949  0.75423111  0.90321758     0.06700
C3187       C  0.37799994  0.77380588  0.90139234     0.26300
C3188       C  0.36931742  0.78310067  0.91816966    -0.11400
C3189       C  0.36878502  0.77296243  0.93685057    -0.25400
C3190       C  0.37465943  0.75264084  0.93794731     0.37100
C3191       C  0.40104596  0.74656131  0.88893818     0.06700
F3192       F  0.38014016  0.78437767  0.88393795    -0.19200
H3193       H  0.36456934  0.79872029  0.91696710     0.16500
F3194       F  0.37348154  0.74218993  0.95556183    -0.22900
H3195       H  0.38906746  0.72817725  0.92282604     0.18300
C3196       C  0.41947341  0.75690855  0.88686219     0.26300
C3197       C  0.43670392  0.74663813  0.88044389    -0.11400
C3198       C  0.43569892  0.72600595  0.87613814    -0.25400
C3199       C  0.41669984  0.71643355  0.87560241     0.37200
C3200       C  0.39951458  0.72668418  0.88209897    -0.27100
F3201       F  0.42145050  0.77612946  0.89351732    -0.19200
H3202       H  0.45108633  0.75437732  0.88059630     0.16500
F3203       F  0.41491208  0.69678732  0.87016797    -0.22900
H3204       H  0.38539075  0.71859082  0.88349362     0.18300
C3205       C  0.36002854  0.90569615  0.06309703    -0.26900
C3206       C  0.34862388  0.90327406  0.08077173     0.06700
C3207       C  0.33777477  0.88525607  0.08368507     0.26300
C3208       C  0.33897655  0.86973840  0.06945292    -0.11400
C3209       C  0.35107731  0.87188014  0.05214667    -0.25400
C3210       C  0.36139885  0.89021438  0.04900322     0.37100
C3211       C  0.34941026  0.91898651  0.09662867     0.06700
F3212       F  0.32676251  0.88227387  0.10070020    -0.19200
H3213       H  0.33087182  0.85583705  0.07225869     0.16500
F3214       F  0.37287035  0.89329930  0.03229558    -0.22900
H3215       H  0.36818584  0.91957666  0.06032483     0.18300
C3216       C  0.36818254  0.92629808  0.10322370     0.26300
C3217       C  0.36915290  0.94029758  0.11877660    -0.11400
C3218       C  0.35149496  0.94753100  0.12811661    -0.25400
C3219       C  0.33262280  0.94070169  0.12115378     0.37200
C3220       C  0.33164957  0.92646036  0.10559977    -0.27100
F3221       F  0.38572429  0.91939212  0.09511677    -0.19200
H3222       H  0.38390260  0.94539379  0.12361034     0.16500
F3223       F  0.31518475  0.94730064  0.12968462    -0.22900
H3224       H  0.31701810  0.92122923  0.10057557     0.18300
C3225       C  0.26016065  0.76479513  0.01862451    -0.26900
C3226       C  0.25416446  0.75449067  0.00110446     0.06700
C3227       C  0.26380213  0.75968782  0.98283051     0.26300
C3228       C  0.27953264  0.77400350  0.98238692    -0.11400
C3229       C  0.28623536  0.78361396  0.00009461    -0.25400
C3230       C  0.27590277  0.77906266  0.01821807     0.37100
C3231       C  0.23918603  0.73735520  0.00228426     0.06700
F3232       F  0.25888251  0.75005339  0.96552232    -0.19200
H3233       H  0.28706512  0.77693747  0.96816430     0.16500
F3234       F  0.28127138  0.78799546  0.03576610    -0.22900
H3235       H  0.25285510  0.76148370  0.03288993     0.18300
C3236       C  0.24151489  0.72195270  0.01685759     0.26300
C3237       C  0.22892949  0.70495715  0.01682569    -0.11400
C3238       C  0.21338341  0.70275807  0.00254500    -0.25400
C3239       C  0.21026259  0.71854130  0.98856703     0.37200
C3240       C  0.22312731  0.73554085  0.98837460    -0.27100
F3241       F  0.25677599  0.72266650  0.03049073    -0.19200
H3242       H  0.23177389  0.69305641  0.02776233     0.16500
F3243       F  0.19562902  0.71698475  0.97434130    -0.22900
H3244       H  0.22073180  0.74718668  0.97708137     0.18300
C3245       C  0.47315077  0.83857264  0.00577110    -0.26900
C3246       C  0.48464156  0.82346285  0.99600335     0.06700
C3247       C  0.47365732  0.80805102  0.98622945     0.26300
C3248       C  0.45228525  0.80746906  0.98679376    -0.11400
C3249       C  0.44081065  0.82239908  0.99671511    -0.25400
C3250       C  0.45168446  0.83814399  0.00607242     0.37100
C3251       C  0.50779686  0.82328409  0.99649195     0.06700
F3252       F  0.48357130  0.79362317  0.97563677    -0.19200
H3253       H  0.44463023  0.79527332  0.97916265     0.16500
F3254       F  0.44162199  0.85278405  0.01623815    -0.22900
H3255       H  0.48080911  0.85056618  0.01368740     0.18300
C3256       C  0.51957596  0.84082230  0.99322295     0.26300
C3257       C  0.54104940  0.84001494  0.99338563    -0.11400
C3258       C  0.55168867  0.82175523  0.99676836    -0.25400
C3259       C  0.53984461  0.80434758  0.00037655     0.37200
C3260       C  0.51848133  0.80517778  0.00025062    -0.27100
F3261       F  0.51040031  0.85873809  0.98920889    -0.19200
H3262       H  0.54938702  0.85377486  0.99054601     0.16500
F3263       F  0.54884905  0.78633700  0.00433474    -0.22900
H3264       H  0.51021354  0.79143539  0.00336671     0.18300
C3265       C  0.61816476  0.84058287  0.58445672    -0.26900
C3266       C  0.60021899  0.85175397  0.58320526     0.06700
C3267       C  0.59673282  0.86425555  0.56641175     0.26300
C3268       C  0.61124340  0.86585493  0.55123433    -0.11400
C3269       C  0.62952197  0.85509122  0.55260508    -0.25400
C3270       C  0.63280500  0.84226138  0.56935078     0.37100
C3271       C  0.58602776  0.85203311  0.60027952     0.06700
F3272       F  0.57938925  0.87516379  0.56490182    -0.19200
H3273       H  0.60826524  0.87575760  0.53851902     0.16500
F3274       F  0.65049706  0.83207719  0.57166428    -0.22900
H3275       H  0.62115222  0.83116174  0.59753708     0.18300
C3276       C  0.57447412  0.83506996  0.60550204     0.26300
C3277       C  0.55995071  0.83641279  0.62083399    -0.11400
C3278       C  0.55699184  0.85462531  0.63126812    -0.25400
C3279       C  0.56949046  0.87125694  0.62652532     0.37200
C3280       C  0.58368092  0.86991070  0.61110393    -0.27100
F3281       F  0.57672789  0.81751665  0.59529240    -0.19200
H3282       H  0.55073345  0.82334999  0.62421673     0.16500
F3283       F  0.56788418  0.88905176  0.63645699    -0.22900
H3284       H  0.59277487  0.88299698  0.60740243     0.18300
C3285       C  0.44892897  0.83230306  0.58742641    -0.26900
C3286       C  0.43317734  0.84596380  0.58329294     0.06700
C3287       C  0.42951075  0.86192384  0.59660491     0.26300
C3288       C  0.44138808  0.86428049  0.61367255    -0.11400
C3289       C  0.45729371  0.85082842  0.61798983    -0.25400
C3290       C  0.46105932  0.83475113  0.60462762     0.37100
C3291       C  0.41982546  0.84371819  0.56562630     0.06700
F3292       F  0.41404302  0.87505342  0.59331164    -0.19200
H3293       H  0.43789472  0.87669850  0.62367914     0.16500
F3294       F  0.47654332  0.82167154  0.60795976    -0.22900
H3295       H  0.45190090  0.81989163  0.57725709     0.18300
C3296       C  0.41824798  0.85958120  0.55161023     0.26300
C3297       C  0.40179359  0.86056940  0.53853233    -0.11400
C3298       C  0.38672648  0.84568166  0.53902692    -0.25400
C3299       C  0.38931823  0.82878045  0.55169992     0.37200
C3300       C  0.40580520  0.82787561  0.56497938    -0.27100
F3301       F  0.43180647  0.87492024  0.55167478    -0.19200
H3302       H  0.40025494  0.87360014  0.52870476     0.16500
F3303       F  0.37499772  0.81420613  0.55267947    -0.22900
H3304       H  0.40674182  0.81563825  0.57583290     0.18300
C3305       C  0.47814553  0.77635889  0.74349169    -0.26900
C3306       C  0.49360734  0.76173036  0.74372866     0.06700
C3307       C  0.50872984  0.76304840  0.72872258     0.26300
C3308       C  0.50895812  0.77935246  0.71479310    -0.11400
C3309       C  0.49418000  0.79470174  0.71562864    -0.25400
C3310       C  0.47846522  0.79260501  0.72984620     0.37100
C3311       C  0.49481856  0.74695913  0.76111818     0.06700
F3312       F  0.52406231  0.74941139  0.72841372    -0.19200
H3313       H  0.52134345  0.78061619  0.70421639     0.16500
F3314       F  0.46363521  0.80676846  0.73102722    -0.22900
H3315       H  0.46612610  0.77566371  0.75454484     0.18300
C3316       C  0.49400050  0.75424280  0.78097608     0.26300
C3317       C  0.49467206  0.74105561  0.79750907    -0.11400
C3318       C  0.49602108  0.71993366  0.79516204    -0.25400
C3319       C  0.49687380  0.71245684  0.77524029     0.37200
C3320       C  0.49642884  0.72586587  0.75845639    -0.27100
F3321       F  0.49285919  0.77437172  0.78452423    -0.19200
H3322       H  0.49402581  0.74765596  0.81239901     0.16500
F3323       F  0.49806632  0.69230931  0.77191904    -0.22900
H3324       H  0.49698691  0.71973899  0.74336327     0.18300
C3325       C  0.56877866  0.13396096  0.59294859    -0.26900
C3326       C  0.57220777  0.15299468  0.58450488     0.06700
C3327       C  0.56201657  0.16987780  0.59225448     0.26300
C3328       C  0.54882044  0.16763830  0.60865084    -0.11400
C3329       C  0.54587413  0.14858263  0.61764685    -0.25400
C3330       C  0.55585670  0.13167069  0.60933938     0.37100
C3331       C  0.58766122  0.15483385  0.56864550     0.06700
F3332       F  0.56494232  0.18844362  0.58405575    -0.19200
H3333       H  0.54122673  0.18087986  0.61454460     0.16500
F3334       F  0.55347094  0.11284497  0.61713148    -0.22900
H3335       H  0.57665920  0.12082610  0.58713923     0.18300
C3336       C  0.60651706  0.16325310  0.57318027     0.26300
C3337       C  0.62247786  0.16154463  0.55951451    -0.11400
C3338       C  0.61997016  0.15117273  0.54123253    -0.25400
C3339       C  0.60077844  0.14346704  0.53639269     0.37200
C3340       C  0.58480105  0.14526304  0.55007213    -0.27100
F3341       F  0.60988460  0.17178578  0.59143083    -0.19200
H3342       H  0.63711836  0.16747820  0.56373209     0.16500
F3343       F  0.59754574  0.13382566  0.51869394    -0.22900
H3344       H  0.57033477  0.13851484  0.54651443     0.18300
C3345       C  0.42653346  0.13895561  0.59333348    -0.26900
C3346       C  0.42340716  0.15857007  0.58614179     0.06700
C3347       C  0.43374773  0.17472140  0.59489333     0.26300
C3348       C  0.44714565  0.17112409  0.61085314    -0.11400
C3349       C  0.45013415  0.15140817  0.61833369    -0.25400
C3350       C  0.43964985  0.13530450  0.60926991     0.37100
C3351       C  0.40826925  0.16153890  0.57028496     0.06700
F3352       F  0.43094181  0.19382541  0.58796199    -0.19200
H3353       H  0.45502106  0.18376748  0.61745184     0.16500
F3354       F  0.44180335  0.11595994  0.61579021    -0.22900
H3355       H  0.41841561  0.12641760  0.58678295     0.18300
C3356       C  0.41123963  0.15254157  0.55140698     0.26300
C3357       C  0.39492312  0.14992201  0.53845928    -0.11400
C3358       C  0.37561587  0.15635120  0.54420633    -0.25400
C3359       C  0.37283055  0.16664583  0.56240749     0.37200
C3360       C  0.38918597  0.16923383  0.57543317    -0.27100
F3361       F  0.42961612  0.14504547  0.54617751    -0.19200
H3362       H  0.39714933  0.14206058  0.52434681     0.16500
F3363       F  0.35411499  0.17275953  0.56820162    -0.22900
H3364       H  0.38667180  0.17583880  0.59012658     0.18300
C3365       C  0.50631535  0.23776727  0.72613627    -0.26900
C3366       C  0.49185258  0.23819025  0.74181533     0.06700
C3367       C  0.47688670  0.22307819  0.74184451     0.26300
C3368       C  0.47739187  0.20727018  0.72781431    -0.11400
C3369       C  0.49245468  0.20611176  0.71285895    -0.25400
C3370       C  0.50662276  0.22196243  0.71178680     0.37100
C3371       C  0.49317437  0.25306665  0.75904260     0.06700
F3372       F  0.46186885  0.22333006  0.75579228    -0.19200
H3373       H  0.46613918  0.19547660  0.72898667     0.16500
F3374       F  0.52160418  0.22144793  0.69782687    -0.22900
H3375       H  0.51801211  0.24915190  0.72557695     0.18300
C3376       C  0.49291677  0.24606159  0.77913055     0.26300
C3377       C  0.49369339  0.25952156  0.79537035    -0.11400
C3378       C  0.49486815  0.28061683  0.79247658    -0.25400
C3379       C  0.49536671  0.28775291  0.77234523     0.37200
C3380       C  0.49465210  0.27412070  0.75590389    -0.27100
F3381       F  0.49240960  0.22596898  0.78319009    -0.19200
H3382       H  0.49346817  0.25317630  0.81045473     0.16500
F3383       F  0.49651287  0.30783374  0.76848283    -0.22900
H3384       H  0.49495578  0.28006534  0.74066124     0.18300
C3385       C  0.48254567  0.97923964  0.67357425    -0.26900
C3386       C  0.50030830  0.98961719  0.66809596     0.06700
C3387       C  0.51747166  0.97795539  0.66310629     0.26300
C3388       C  0.51680217  0.95669647  0.66371226    -0.11400
C3389       C  0.49898601  0.94632987  0.66906329    -0.25400
C3390       C  0.48181041  0.95798892  0.67397718     0.37100
C3391       C  0.50075520  0.01242630  0.66756694     0.06700
F3392       F  0.53481465  0.98707718  0.65710938    -0.19200
H3393       H  0.53029612  0.94829056  0.65976680     0.16500
F3394       F  0.46440403  0.94889558  0.67981257    -0.22900
H3395       H  0.46916291  0.98764236  0.67787311     0.18300
C3396       C  0.48512226  0.02366040  0.65832033     0.26300
C3397       C  0.48547025  0.04490640  0.65809120    -0.11400
C3398       C  0.50142553  0.05575565  0.66694415    -0.25400
C3399       C  0.51709965  0.04453249  0.67622093     0.37200
C3400       C  0.51671612  0.02323979  0.67648822    -0.27100
F3401       F  0.46962326  0.01409821  0.64904500    -0.19200
H3402       H  0.47316546  0.05291541  0.65079794     0.16500
F3403       F  0.53254133  0.05408063  0.68561528    -0.22900
H3404       H  0.52880597  0.01517330  0.68406884     0.18300
C3405       C  0.38413914  0.06744006  0.73542717    -0.26900
C3406       C  0.38796767  0.08586429  0.74506671     0.06700
C3407       C  0.38064633  0.08912221  0.76456815     0.26300
C3408       C  0.37247891  0.07311166  0.77534666    -0.11400
C3409       C  0.37164216  0.05373446  0.76679765    -0.25400
C3410       C  0.37595421  0.05134038  0.74624040     0.37100
C3411       C  0.40336592  0.09924732  0.73652820     0.06700
F3412       F  0.38337895  0.10711621  0.77386330    -0.19200
H3413       H  0.36840337  0.07552681  0.79098953     0.16500
F3414       F  0.37444427  0.03307437  0.73723130    -0.22900
H3415       H  0.38948686  0.06482158  0.72020630     0.18300
C3416       C  0.42124754  0.10285332  0.74743003     0.26300
C3417       C  0.43796065  0.11115334  0.73779102    -0.11400
C3418       C  0.43720755  0.11550769  0.71713694    -0.25400
C3419       C  0.41888384  0.11302869  0.70656106     0.37200
C3420       C  0.40209967  0.10503352  0.71629185    -0.27100
F3421       F  0.42327766  0.09649546  0.76682062    -0.19200
H3422       H  0.45190458  0.11283083  0.74618146     0.16500
F3423       F  0.41739500  0.11736096  0.68658609    -0.22900
H3424       H  0.38845848  0.10220200  0.70772471     0.18300
C3425       C  0.36895949  0.91080063  0.75231598    -0.26900
C3426       C  0.38694845  0.90051556  0.75723056     0.06700
C3427       C  0.39702708  0.90538305  0.77524826     0.26300
C3428       C  0.39038572  0.92144269  0.78687193    -0.11400
C3429       C  0.37395560  0.93329049  0.78060566    -0.25400
C3430       C  0.36248327  0.92717422  0.76390675     0.37100
C3431       C  0.39804197  0.88910456  0.74162231     0.06700
F3432       F  0.41484570  0.89651350  0.78033138    -0.19200
H3433       H  0.39934097  0.92571984  0.79984273     0.16500
F3434       F  0.34564290  0.93752371  0.75830102    -0.22900
H3435       H  0.36084117  0.90715769  0.73862957     0.18300
C3436       C  0.40961703  0.87198441  0.74672998     0.26300
C3437       C  0.42655702  0.86694647  0.73520112    -0.11400
C3438       C  0.43145888  0.87831165  0.71797052    -0.25400
C3439       C  0.41786016  0.89319632  0.71110721     0.37200
C3440       C  0.40137525  0.89861488  0.72296544    -0.27100
F3441       F  0.40563363  0.86137000  0.76382910    -0.19200
H3442       H  0.43634272  0.85477273  0.74023553     0.16500
F3443       F  0.42159616  0.90401144  0.69407662    -0.22900
H3444       H  0.39255228  0.91171055  0.71851810     0.18300
C3445       C  0.36607270  0.11018885  0.91580054    -0.26900
C3446       C  0.34809595  0.09903186  0.91493183     0.06700
C3447       C  0.33319449  0.10220393  0.92972882     0.26300
C3448       C  0.33633034  0.11628526  0.94501656    -0.11400
C3449       C  0.35429835  0.12751205  0.94577877    -0.25400
C3450       C  0.36906864  0.12447983  0.93078071     0.37100
C3451       C  0.34539403  0.08400656  0.89868994     0.06700
F3452       F  0.31547170  0.09197576  0.92925988    -0.19200
H3453       H  0.32467653  0.11834839  0.95629367     0.16500
F3454       F  0.38641942  0.13536378  0.93038541    -0.22900
H3455       H  0.37801577  0.10773953  0.90491330     0.18300
C3456       C  0.35136349  0.08857332  0.87881314     0.26300
C3457       C  0.35136139  0.07362539  0.86417053    -0.11400
C3458       C  0.34488633  0.05404230  0.86884032    -0.25400
C3459       C  0.33762934  0.04969297  0.88824333     0.37200
C3460       C  0.33814422  0.06453894  0.90314290    -0.27100
F3461       F  0.35756708  0.10739485  0.87357527    -0.19200
H3462       H  0.35685407  0.07723375  0.84919553     0.16500
F3463       F  0.33149039  0.03077804  0.89316613    -0.22900
H3464       H  0.33375413  0.06051742  0.91835435     0.18300
C3465       C  0.33400644  0.89200799  0.92251083    -0.26900
C3466       C  0.34307930  0.91037863  0.92767113     0.06700
C3467       C  0.35206766  0.91238824  0.94673350     0.26300
C3468       C  0.35324627  0.89580107  0.95975598    -0.11400
C3469       C  0.34527728  0.87702889  0.95409102    -0.25400
C3470       C  0.33498870  0.87545494  0.93560799     0.37100
C3471       C  0.34472560  0.92655987  0.91233810     0.06700
F3472       F  0.36011216  0.93025335  0.95254471    -0.19200
H3473       H  0.36083930  0.89751392  0.97410305     0.16500
F3474       F  0.32705977  0.85762264  0.92956690    -0.22900
H3475       H  0.32702630  0.89018116  0.90787033     0.18300
C3476       C  0.36379181  0.93405619  0.90682813     0.26300
C3477       C  0.36560696  0.94755141  0.89075091    -0.11400
C3478       C  0.34850365  0.95389133  0.87980332    -0.25400
C3479       C  0.32931835  0.94691562  0.88578157     0.37200
C3480       C  0.32752970  0.93324451  0.90183192    -0.27100
F3481       F  0.38082418  0.92748086  0.91624107    -0.19200
H3482       H  0.38056937  0.95270166  0.88659612     0.16500
F3483       F  0.31239420  0.95257241  0.87565330    -0.22900
H3484       H  0.31273027  0.92754175  0.90584154     0.18300
C3485       C  0.27282754  0.99404002  0.75007768    -0.26900
C3486       C  0.25418042  0.00084203  0.75739987     0.06700
C3487       C  0.25267498  0.00525133  0.77818932     0.26300
C3488       C  0.26989319  0.00369160  0.79095920    -0.11400
C3489       C  0.28885542  0.99751429  0.78325180    -0.25400
C3490       C  0.28972442  0.99223983  0.76259746     0.37100
C3491       C  0.23732596  0.00392555  0.74240893     0.06700
F3492       F  0.23485015  0.01173302  0.78598586    -0.19200
H3493       H  0.26850546  0.00779145  0.80665154     0.16500
F3494       F  0.30710051  0.98539448  0.75411545    -0.22900
H3495       H  0.27440491  0.99024587  0.73430589     0.18300
C3496       C  0.24028135  0.01717231  0.72601403     0.26300
C3497       C  0.22737219  0.01684606  0.70923244    -0.11400
C3498       C  0.21086358  0.00351080  0.70820675    -0.25400
C3499       C  0.20694793  0.99124137  0.72522843     0.37200
C3500       C  0.22012274  0.99140678  0.74209509    -0.27100
F3501       F  0.25641328  0.02978395  0.72577234    -0.19200
H3502       H  0.23079640  0.02662340  0.69654305     0.16500
F3503       F  0.19141507  0.97794827  0.72492146    -0.22900
H3504       H  0.21757416  0.98085970  0.75435606     0.18300
C3505       C  0.61278435  0.10034081  0.77124569    -0.26900
C3506       C  0.60378416  0.09791751  0.75237073     0.06700
C3507       C  0.60321791  0.07877191  0.74336096     0.26300
C3508       C  0.61008207  0.06194902  0.75392760    -0.11400
C3509       C  0.61722742  0.06407744  0.77363498    -0.25400
C3510       C  0.61957692  0.08347987  0.78187536     0.37100
C3511       C  0.59065123  0.11369213  0.74423221     0.06700
F3512       F  0.59382586  0.07602602  0.72538611    -0.19200
H3513       H  0.60820941  0.04715323  0.74737050     0.16500
F3514       F  0.62737553  0.08603149  0.80061681    -0.22900
H3515       H  0.61316852  0.11502143  0.77828939     0.18300
C3516       C  0.57216088  0.11730232  0.75398623     0.26300
C3517       C  0.55583858  0.12479031  0.74304849    -0.11400
C3518       C  0.55788119  0.12850697  0.72233703    -0.25400
C3519       C  0.57722503  0.12771904  0.71340654     0.37200
C3520       C  0.59354736  0.12027866  0.72439714    -0.27100
F3521       F  0.56902514  0.11076443  0.77316726    -0.19200
H3522       H  0.54121478  0.12556207  0.75027893     0.16500
F3523       F  0.58001892  0.13225008  0.69361235    -0.22900
H3524       H  0.60778430  0.11760324  0.71684499     0.18300
C3525       C  0.60606583  0.90948400  0.77955086    -0.26900
C3526       C  0.59995695  0.91115874  0.75947690     0.06700
C3527       C  0.60493257  0.92846338  0.74816375     0.26300
C3528       C  0.61387975  0.94484192  0.75763518    -0.11400
C3529       C  0.61768298  0.94407181  0.77839495    -0.25400
C3530       C  0.61505082  0.92578207  0.78900027     0.37100
C3531       C  0.58487267  0.89714238  0.75176862     0.06700
F3532       F  0.59900164  0.93047078  0.72865889    -0.19200
H3533       H  0.61601982  0.95868998  0.74916096     0.16500
F3534       F  0.61964831  0.92413097  0.80888896    -0.22900
H3535       H  0.60246340  0.89610751  0.78828888     0.18300
C3536       C  0.58783370  0.88757763  0.73329170     0.26300
C3537       C  0.57149989  0.87885852  0.72360573    -0.11400
C3538       C  0.55202786  0.87995196  0.73208650    -0.25400
C3539       C  0.54949536  0.88757789  0.75158405     0.37200
C3540       C  0.56595793  0.89615684  0.76138451    -0.27100
F3541       F  0.60608580  0.88813105  0.72394506    -0.19200
H3542       H  0.57378252  0.87264911  0.70867688     0.16500
F3543       F  0.53089776  0.88878810  0.76015314    -0.22900
H3544       H  0.56353935  0.90361830  0.77570454     0.18300
C3545       C  0.62993926  0.93684573  0.90590974    -0.26900
C3546       C  0.64896908  0.92941209  0.91146157     0.06700
C3547       C  0.66625827  0.93676939  0.90151220     0.26300
C3548       C  0.66427548  0.95079842  0.88571909    -0.11400
C3549       C  0.64504509  0.95751592  0.87956916    -0.25400
C3550       C  0.62790276  0.95071282  0.89025567     0.37100
C3551       C  0.64999931  0.91252511  0.92609837     0.06700
F3552       F  0.68494923  0.93019560  0.90690101    -0.19200
H3553       H  0.67774759  0.95593051  0.87790133     0.16500
F3554       F  0.60899627  0.95711332  0.88540669    -0.22900
H3555       H  0.61634513  0.93121562  0.91322745     0.18300
C3556       C  0.63909809  0.91335134  0.94427849     0.26300
C3557       C  0.63664761  0.89598219  0.95598966    -0.11400
C3558       C  0.64513934  0.87750137  0.94993622    -0.25400
C3559       C  0.65696863  0.87695120  0.93229971     0.37200
C3560       C  0.65929831  0.89433402  0.92051569    -0.27100
F3561       F  0.63035264  0.93084518  0.95040498    -0.19200
H3562       H  0.62781416  0.89696396  0.96975056     0.16500
F3563       F  0.66535473  0.85943129  0.92582770    -0.22900
H3564       H  0.66749704  0.89329120  0.90634763     0.18300
C3565       C  0.64393910  0.08963470  0.88796361    -0.26900
C3566       C  0.65607093  0.08456361  0.90453265     0.06700
C3567       C  0.66607468  0.06582982  0.90501417     0.26300
C3568       C  0.66346470  0.05216284  0.88920745    -0.11400
C3569       C  0.65052032  0.05693780  0.87308301    -0.25400
C3570       C  0.64112340  0.07599156  0.87238050     0.37100
C3571       C  0.65696481  0.09867538  0.92156269     0.06700
F3572       F  0.67811338  0.06073251  0.92080895    -0.19200
H3573       H  0.67086903  0.03756163  0.88996452     0.16500
F3574       F  0.62904212  0.08137757  0.85669199    -0.22900
H3575       H  0.63610493  0.10402825  0.88740742     0.18300
C3576       C  0.66319793  0.11864958  0.91837392     0.26300
C3577       C  0.66065532  0.13296926  0.93348372    -0.11400
C3578       C  0.65152744  0.12770145  0.95188628    -0.25400
C3579       C  0.64605509  0.10745224  0.95537665     0.37200
C3580       C  0.64889336  0.09305262  0.94030605    -0.27100
F3581       F  0.67105073  0.12442264  0.90034244    -0.19200
H3582       H  0.66502376  0.14845288  0.93040742     0.16500
F3583       F  0.63763529  0.10164928  0.97314222    -0.22900
H3584       H  0.64384077  0.07768863  0.94289559     0.18300
C3585       C  0.71949909  0.01898189  0.75270610    -0.26900
C3586       C  0.73531737  0.00509358  0.75560859     0.06700
C3587       C  0.73468322  0.99249912  0.77280258     0.26300
C3588       C  0.71821922  0.99343612  0.78640476    -0.11400
C3589       C  0.70191019  0.00673373  0.78293327    -0.25400
C3590       C  0.70305557  0.01982187  0.76609180     0.37100
C3591       C  0.75071625  0.00224166  0.73922626     0.06700
F3592       F  0.74940764  0.97851538  0.77582155    -0.19200
H3593       H  0.71769465  0.98301503  0.79899133     0.16500
F3594       F  0.68794604  0.03321973  0.76226305    -0.22900
H3595       H  0.71953624  0.02874445  0.73958467     0.18300
C3596       C  0.74516963  0.99214354  0.72154319     0.26300
C3597       C  0.75855669  0.99077557  0.70522216    -0.11400
C3598       C  0.77796495  0.99953223  0.70580192    -0.25400
C3599       C  0.78381295  0.00925814  0.72375742     0.37200
C3600       C  0.77028345  0.01056907  0.74028676    -0.27100
F3601       F  0.72647670  0.98393973  0.71986673    -0.19200
H3602       H  0.75344170  0.98313262  0.69177014     0.16500
F3603       F  0.80207102  0.01842151  0.72496468    -0.22900
H3604       H  0.77484835  0.01863615  0.75367925     0.18300
C3605       C  0.51820387  0.02412827  0.82998544    -0.26900
C3606       C  0.50740455  0.00595527  0.83247029     0.06700
C3607       C  0.51883201  0.98821855  0.83595923     0.26300
C3608       C  0.54016873  0.98863935  0.83630405    -0.11400
C3609       C  0.55099895  0.00673997  0.83339305    -0.25400
C3610       C  0.53955539  0.02459220  0.83054014     0.37100
C3611       C  0.48447298  0.00544370  0.83106386     0.06700
F3612       F  0.50938002  0.97038016  0.83937172    -0.19200
H3613       H  0.54825099  0.97461301  0.83877658     0.16500
F3614       F  0.54894600  0.04255325  0.82772050    -0.22900
H3615       H  0.51011492  0.03806419  0.82708522     0.18300
C3616       C  0.47211436  0.02008900  0.84049249     0.26300
C3617       C  0.45081081  0.01916084  0.83918833    -0.11400
C3618       C  0.44107175  0.00350032  0.82873150    -0.25400
C3619       C  0.45336642  0.98913176  0.81896201     0.37200
C3620       C  0.47463782  0.99016533  0.82007310    -0.27100
F3621       F  0.48054678  0.03500817  0.85156864    -0.19200
H3622       H  0.44186379  0.03052416  0.84680121     0.16500
F3623       F  0.44482838  0.97439068  0.80771915    -0.22900
H3624       H  0.48347788  0.97902030  0.81204427     0.18300
C3625       C  0.83759735  0.56956940  0.59855954    -0.26900
C3626       C  0.85386897  0.58271296  0.59522771     0.06700
C3627       C  0.86992364  0.58295611  0.60903982     0.26300
C3628       C  0.87025926  0.56943280  0.62518788    -0.11400
C3629       C  0.85454456  0.55544782  0.62802909    -0.25400
C3630       C  0.83786889  0.55601107  0.61482901     0.37100
C3631       C  0.85418817  0.59619411  0.57740768     0.06700
F3632       F  0.88530213  0.59631934  0.60691970    -0.19200
H3633       H  0.88308816  0.56973470  0.63532715     0.16500
F3634       F  0.82221730  0.54302163  0.61712375    -0.22900
H3635       H  0.82494390  0.56941595  0.58819867     0.18300
C3636       C  0.87086609  0.59628744  0.56426485     0.26300
C3637       C  0.87200792  0.61048283  0.54866839    -0.11400
C3638       C  0.85657028  0.62486890  0.54590891    -0.25400
C3639       C  0.83931016  0.62391277  0.55838670     0.37200
C3640       C  0.83819440  0.60967095  0.57395385    -0.27100
F3641       F  0.88618419  0.58280648  0.56670260    -0.19200
H3642       H  0.88533969  0.61060804  0.53917410     0.16500
F3643       F  0.82366993  0.63699267  0.55590811    -0.22900
H3644       H  0.82511677  0.60964145  0.58380660     0.18300
C3645       C  0.82482155  0.39877813  0.57070082    -0.26900
C3646       C  0.83703309  0.41594969  0.56961529     0.06700
C3647       C  0.85181209  0.41741482  0.55449555     0.26300
C3648       C  0.85537935  0.40109535  0.54173103    -0.11400
C3649       C  0.84428391  0.38314305  0.54392944    -0.25400
C3650       C  0.82828021  0.38250180  0.55795404     0.37100
C3651       C  0.83744089  0.42970799  0.58690374     0.06700
F3652       F  0.86400007  0.43381299  0.55328698    -0.19200
H3653       H  0.86755253  0.40215517  0.53084679     0.16500
F3654       F  0.81687668  0.36568726  0.56046122    -0.22900
H3655       H  0.81345770  0.39745204  0.58241371     0.18300
C3656       C  0.83270377  0.45031712  0.58510219     0.26300
C3657       C  0.83525228  0.46308917  0.60170074    -0.11400
C3658       C  0.84288487  0.45534032  0.61992787    -0.25400
C3659       C  0.84679286  0.43460215  0.62181556     0.37200
C3660       C  0.84400160  0.42192505  0.60545477    -0.27100
F3661       F  0.82605299  0.45803747  0.56730414    -0.19200
H3662       H  0.83224515  0.47909591  0.60006271     0.16500
F3663       F  0.85378762  0.42669315  0.63941299    -0.22900
H3664       H  0.84770298  0.40604427  0.60703393     0.18300
C3665       C  0.76098933  0.49802836  0.72505942    -0.26900
C3666       C  0.76405818  0.50070024  0.74592282     0.06700
C3667       C  0.78389876  0.50379628  0.75277079     0.26300
C3668       C  0.80020747  0.50356474  0.73933610    -0.11400
C3669       C  0.79745185  0.50027901  0.71852878    -0.25400
C3670       C  0.77750247  0.49780860  0.71145413     0.37100
C3671       C  0.74715348  0.49912670  0.76096321     0.06700
F3672       F  0.78756874  0.50705262  0.77262781    -0.19200
H3673       H  0.81521415  0.50589827  0.74538560     0.16500
F3674       F  0.77400859  0.49435974  0.69162773    -0.22900
H3675       H  0.74588115  0.49550399  0.71939214     0.18300
C3676       C  0.73053462  0.51254131  0.76101564     0.26300
C3677       C  0.71636151  0.51223595  0.77700580    -0.11400
C3678       C  0.71862100  0.49861758  0.79323757    -0.25400
C3679       C  0.73470801  0.48463052  0.79253878     0.37200
C3680       C  0.74867184  0.48490377  0.77666718    -0.27100
F3681       F  0.72871608  0.52673983  0.74631559    -0.19200
H3682       H  0.70433186  0.52331162  0.77724271     0.16500
F3683       F  0.73724822  0.47088071  0.80758797    -0.22900
H3684       H  0.76113002  0.47429181  0.77694015     0.18300
C3685       C  0.13495426  0.55888732  0.58734133    -0.26900
C3686       C  0.15404271  0.56553102  0.58118371     0.06700
C3687       C  0.17133843  0.55806826  0.59110504     0.26300
C3688       C  0.16932124  0.54524669  0.60787423    -0.11400
C3689       C  0.15003800  0.53982637  0.61493424    -0.25400
C3690       C  0.13288895  0.54614307  0.60389493     0.37100
C3691       C  0.15514735  0.58230971  0.56646697     0.06700
F3692       F  0.19006459  0.56370706  0.58495881    -0.19200
H3693       H  0.18277887  0.54034466  0.61586327     0.16500
F3694       F  0.11391629  0.54072377  0.60950175    -0.22900
H3695       H  0.12139298  0.56453613  0.58002105     0.18300
C3696       C  0.14374664  0.58186612  0.54859915     0.26300
C3697       C  0.14123096  0.59938375  0.53711145    -0.11400
C3698       C  0.15003848  0.61763937  0.54317468    -0.25400
C3699       C  0.16232193  0.61781235  0.56049357     0.37200
C3700       C  0.16481113  0.60026582  0.57198515    -0.27100
F3701       F  0.13441766  0.56467377  0.54267805    -0.19200
H3702       H  0.13195418  0.59874813  0.52365673     0.16500
F3703       F  0.17086146  0.63515684  0.56708878    -0.22900
H3704       H  0.17328939  0.60104624  0.58595142     0.18300
C3705       C  0.16738800  0.42430699  0.60770797    -0.26900
C3706       C  0.14980129  0.41443552  0.60122560     0.06700
C3707       C  0.13107773  0.42019341  0.60943263     0.26300
C3708       C  0.13004070  0.43514004  0.62407615    -0.11400
C3709       C  0.14757784  0.44489252  0.63089907    -0.25400
C3710       C  0.16635320  0.43942437  0.62241752     0.37100
C3711       C  0.15082186  0.39766993  0.58649772     0.06700
F3712       F  0.11365044  0.41153316  0.60309138    -0.19200
H3713       H  0.11531000  0.43914659  0.62999196     0.16500
F3714       F  0.18371850  0.44834763  0.62852362    -0.22900
H3715       H  0.18198626  0.42000421  0.60167615     0.18300
C3716       C  0.16057694  0.39986612  0.56775088     0.26300
C3717       C  0.15982645  0.38427319  0.55352878    -0.11400
C3718       C  0.14914643  0.36641606  0.55771245    -0.25400
C3719       C  0.14008561  0.36402710  0.57677153     0.37200
C3720       C  0.14105354  0.37942940  0.59097183    -0.27100
F3721       F  0.16985677  0.41743858  0.56278252    -0.19200
H3722       H  0.16678611  0.38653794  0.53890445     0.16500
F3723       F  0.13010023  0.34682378  0.58166772    -0.22900
H3724       H  0.13380854  0.37722901  0.60547222     0.18300
C3725       C  0.23735542  0.49046838  0.72916003    -0.26900
C3726       C  0.23737500  0.50379776  0.74566881     0.06700
C3727       C  0.22224817  0.51872879  0.74653495     0.26300
C3728       C  0.20680683  0.51943352  0.73219135    -0.11400
C3729       C  0.20590104  0.50544029  0.71635184    -0.25400
C3730       C  0.22173236  0.49122657  0.71459780     0.37100
C3731       C  0.25167238  0.50132262  0.76305429     0.06700
F3732       F  0.22198357  0.53232176  0.76177585    -0.19200
H3733       H  0.19498551  0.53065607  0.73392199     0.16500
F3734       F  0.22134614  0.47720285  0.69978101    -0.22900
H3735       H  0.24881622  0.47881516  0.72813207     0.18300
C3736       C  0.24385657  0.49928992  0.78266697     0.26300
C3737       C  0.25665787  0.49917147  0.79939001    -0.11400
C3738       C  0.27779928  0.50083034  0.79732029    -0.25400
C3739       C  0.28582156  0.50182583  0.77760197     0.37200
C3740       C  0.27282845  0.50208171  0.76066288    -0.27100
F3741       F  0.22364085  0.49750223  0.78571635    -0.19200
H3742       H  0.24976333  0.49789299  0.81419258     0.16500
F3743       F  0.30607629  0.50298201  0.77467744    -0.22900
H3744       H  0.27927786  0.50348077  0.74566686     0.18300
C3745       C  0.97850698  0.48160776  0.66013011    -0.26900
C3746       C  0.98944473  0.49855888  0.66678566     0.06700
C3747       C  0.97819628  0.51553426  0.67307970     0.26300
C3748       C  0.95691371  0.51546826  0.67273671    -0.11400
C3749       C  0.94590639  0.49851712  0.66623846    -0.25400
C3750       C  0.95714163  0.48148515  0.65989694     0.37100
C3751       C  0.01236176  0.49856069  0.66733150     0.06700
F3752       F  0.98774797  0.53207038  0.68030740    -0.19200
H3753       H  0.94898106  0.52882561  0.67795911     0.16500
F3754       F  0.94756978  0.46458829  0.65357603    -0.22900
H3755       H  0.98656111  0.46831305  0.65492566     0.18300
C3756       C  0.02349722  0.48208926  0.67521078     0.26300
C3757       C  0.04479321  0.48264693  0.67621107    -0.11400
C3758       C  0.05579440  0.49958594  0.66945979    -0.25400
C3759       C  0.04465758  0.51596842  0.66137705     0.37200
C3760       C  0.02338837  0.51536145  0.66030836    -0.27100
F3761       F  0.01380019  0.46563528  0.68261504    -0.19200
H3762       H  0.05271080  0.46974274  0.68260066     0.16500
F3763       F  0.05426158  0.53263692  0.65433118    -0.22900
H3764       H  0.01546589  0.52819143  0.65377357     0.18300
C3765       C  0.08832028  0.39318055  0.75216714    -0.26900
C3766       C  0.10277061  0.40050852  0.76578656     0.06700
C3767       C  0.10143130  0.39522165  0.78625193     0.26300
C3768       C  0.08485850  0.38413091  0.79315506    -0.11400
C3769       C  0.06938286  0.37872479  0.77973525    -0.25400
C3770       C  0.07162587  0.38252127  0.75909958     0.37100
C3771       C  0.11611675  0.41681889  0.75880049     0.06700
F3772       F  0.11536254  0.40191748  0.79963693    -0.19200
H3773       H  0.08329251  0.38123426  0.80915983     0.16500
F3774       F  0.05706044  0.37699559  0.74584584    -0.22900
H3775       H  0.08900631  0.39724195  0.73634944     0.18300
C3776       C  0.12696328  0.41447032  0.74081846     0.26300
C3777       C  0.13232526  0.43139750  0.72957943    -0.11400
C3778       C  0.12707940  0.45084267  0.73620483    -0.25400
C3779       C  0.11889923  0.45328249  0.75556320     0.37200
C3780       C  0.11337525  0.43625308  0.76679036    -0.27100
F3781       F  0.13030803  0.39582850  0.73307487    -0.19200
H3782       H  0.13921939  0.42922950  0.71492860     0.16500
F3783       F  0.11408666  0.47188212  0.76258888    -0.22900
H3784       H  0.10495754  0.43832253  0.78063717     0.18300
C3785       C  0.89323910  0.41157647  0.74149406    -0.26900
C3786       C  0.90236275  0.39745316  0.72865737     0.06700
C3787       C  0.89971501  0.39915176  0.70779085     0.26300
C3788       C  0.89023034  0.41617500  0.69983352    -0.11400
C3789       C  0.88346635  0.43172414  0.71261462    -0.25400
C3790       C  0.88386921  0.42868593  0.73358503     0.37100
C3791       C  0.91824470  0.38446794  0.73708075     0.06700
F3792       F  0.90790095  0.38531623  0.69512939    -0.19200
H3793       H  0.88954543  0.41780388  0.68358405     0.16500
F3794       F  0.87695255  0.44295608  0.74648930    -0.22900
H3795       H  0.89514520  0.41041487  0.75769665     0.18300
C3796       C  0.93838636  0.38771497  0.73114521     0.26300
C3797       C  0.95413348  0.38125940  0.74348244    -0.11400
C3798       C  0.95001931  0.37161028  0.76188401    -0.25400
C3799       C  0.92988840  0.36654087  0.76673135     0.37200
C3800       C  0.91415535  0.37296761  0.75433234    -0.27100
F3801       F  0.94283531  0.39920120  0.71473021    -0.19200
H3802       H  0.96948972  0.38502380  0.73923931     0.16500
F3803       F  0.92514988  0.35700069  0.78425748    -0.22900
H3804       H  0.89868124  0.37048354  0.75909131     0.18300
C3805       C  0.92682740  0.33426541  0.89053120    -0.26900
C3806       C  0.92065381  0.35182257  0.90068021     0.06700
C3807       C  0.92907482  0.37045368  0.89497076     0.26300
C3808       C  0.94359984  0.37140652  0.87981451    -0.11400
C3809       C  0.94987509  0.35394573  0.86967677    -0.25400
C3810       C  0.94126044  0.33527736  0.87505966     0.37100
C3811       C  0.90557563  0.35098423  0.91724258     0.06700
F3812       F  0.92291844  0.38789207  0.90373327    -0.19200
H3813       H  0.94975588  0.38603553  0.87575532     0.16500
F3814       F  0.94719894  0.31800588  0.86584917    -0.22900
H3815       H  0.92069042  0.31969509  0.89480767     0.18300
C3816       C  0.88700831  0.34098247  0.91489781     0.26300
C3817       C  0.87219041  0.34230782  0.92990550    -0.11400
C3818       C  0.87550859  0.35376877  0.94737268    -0.25400
C3819       C  0.89442844  0.36301871  0.95005025     0.37200
C3820       C  0.90928294  0.36143973  0.93521392    -0.27100
F3821       F  0.88275005  0.33087049  0.89768660    -0.19200
H3822       H  0.85773696  0.33499827  0.92745074     0.16500
F3823       F  0.89857936  0.37375351  0.96691051    -0.22900
H3824       H  0.92370577  0.36883662  0.93760660     0.18300
C3825       C  0.07388506  0.33049779  0.89446377    -0.26900
C3826       C  0.08238259  0.34780296  0.90301450     0.06700
C3827       C  0.07601938  0.36696207  0.89644419     0.26300
C3828       C  0.06097484  0.36876622  0.88189906    -0.11400
C3829       C  0.05225579  0.35152228  0.87339855    -0.25400
C3830       C  0.05886600  0.33229304  0.87972951     0.37100
C3831       C  0.09759083  0.34607722  0.91910391     0.06700
F3832       F  0.08467755  0.38393247  0.90382978    -0.19200
H3833       H  0.05649151  0.38372162  0.87691039     0.16500
F3834       F  0.05056806  0.31530757  0.87200058    -0.22900
H3835       H  0.07868335  0.31563643  0.89943758     0.18300
C3836       C  0.09396844  0.35505603  0.93786180     0.26300
C3837       C  0.10923243  0.35573185  0.95229051    -0.11400
C3838       C  0.12830773  0.34729864  0.94832004    -0.25400
C3839       C  0.13153205  0.33720058  0.92992667     0.37200
C3840       C  0.11622137  0.33666727  0.91541180    -0.27100
F3841       F  0.07573967  0.36353338  0.94202292    -0.19200
H3842       H  0.10624967  0.36324438  0.96644452     0.16500
F3843       F  0.14976099  0.32887469  0.92547096    -0.22900
H3844       H  0.11916497  0.32965635  0.90099173     0.18300
C3845       C  0.98843642  0.26837678  0.75875563    -0.26900
C3846       C  0.00705270  0.26006664  0.75275285     0.06700
C3847       C  0.02484165  0.26786568  0.76134308     0.26300
C3848       C  0.02397305  0.28376887  0.77527020    -0.11400
C3849       C  0.00537847  0.29249050  0.78097098    -0.25400
C3850       C  0.98753394  0.28440345  0.77255326     0.37100
C3851       C  0.00788262  0.24455540  0.73637652     0.06700
F3852       F  0.04314852  0.26015811  0.75618348    -0.19200
H3853       H  0.03800357  0.28954101  0.78128870     0.16500
F3854       F  0.96916851  0.29241454  0.77698481    -0.22900
H3855       H  0.97453690  0.26294098  0.75214119     0.18300
C3856       C  0.99621498  0.22677361  0.73710082     0.26300
C3857       C  0.99607388  0.21326741  0.72072399    -0.11400
C3858       C  0.00736137  0.21734294  0.70318452    -0.25400
C3859       C  0.01958235  0.23480348  0.70288473     0.37200
C3860       C  0.01980795  0.24810656  0.71922589    -0.27100
F3861       F  0.98488488  0.22249813  0.75362243    -0.19200
H3862       H  0.98656544  0.20004486  0.72147252     0.16500
F3863       F  0.03120591  0.23928642  0.68659702    -0.22900
H3864       H  0.02887670  0.26162322  0.71817754     0.18300
C3865       C  0.10530768  0.60421738  0.70840272    -0.26900
C3866       C  0.10325096  0.60555635  0.72937593     0.06700
C3867       C  0.11321044  0.59128766  0.74171189     0.26300
C3868       C  0.12236260  0.57442788  0.73313273    -0.11400
C3869       C  0.12162479  0.57149381  0.71223825    -0.25400
C3870       C  0.11454914  0.58737852  0.69980505     0.37100
C3871       C  0.08666972  0.61773322  0.73799527     0.06700
F3872       F  0.11171736  0.59204313  0.76210054    -0.19200
H3873       H  0.12827047  0.56276780  0.74304056     0.16500
F3874       F  0.11491920  0.58594916  0.67939860    -0.22900
H3875       H  0.09808095  0.61527242  0.69866501     0.18300
C3876       C  0.08928212  0.62819037  0.75613357     0.26300
C3877       C  0.07254247  0.63253886  0.76813226    -0.11400
C3878       C  0.05303450  0.62706602  0.76187362    -0.25400
C3879       C  0.05020637  0.61943700  0.74240662     0.37200
C3880       C  0.06698841  0.61469457  0.73060014    -0.27100
F3881       F  0.10807258  0.63256765  0.76301474    -0.19200
H3882       H  0.07492654  0.63915495  0.78285214     0.16500
F3883       F  0.03149944  0.61447690  0.73570189    -0.22900
H3884       H  0.06458605  0.60674483  0.71656643     0.18300
C3885       C  0.91497140  0.60940659  0.75070275    -0.26900
C3886       C  0.89970133  0.60097895  0.76282851     0.06700
C3887       C  0.90027010  0.60387902  0.78374250     0.26300
C3888       C  0.91725710  0.61249373  0.79251644    -0.11400
C3889       C  0.93375045  0.61842399  0.78050367    -0.25400
C3890       C  0.93183460  0.61824140  0.75942641     0.37100
C3891       C  0.88669673  0.58534189  0.75403280     0.06700
F3892       F  0.88528516  0.59672723  0.79577378    -0.19200
H3893       H  0.91805427  0.61320466  0.80880319     0.16500
F3894       F  0.94703740  0.62461500  0.74722477    -0.22900
H3895       H  0.91497979  0.60731955  0.73452862     0.18300
C3896       C  0.87872682  0.58795715  0.73461258     0.26300
C3897       C  0.87360033  0.57117137  0.72329151    -0.11400
C3898       C  0.87619031  0.55161836  0.73123154    -0.25400
C3899       C  0.88127977  0.54915999  0.75160683     0.37200
C3900       C  0.88666636  0.56598218  0.76289065    -0.27100
F3901       F  0.87781786  0.60652532  0.72589625    -0.19200
H3902       H  0.86887681  0.57344094  0.70781016     0.16500
F3903       F  0.88312955  0.53052099  0.75999584    -0.22900
H3904       H  0.89282072  0.56353413  0.77782287     0.18300
C3905       C  0.07691084  0.66448770  0.88857761    -0.26900
C3906       C  0.08441545  0.64665200  0.89733103     0.06700
C3907       C  0.07581558  0.62807233  0.89219671     0.26300
C3908       C  0.06061476  0.62724644  0.87779324    -0.11400
C3909       C  0.05352694  0.64493326  0.86836543    -0.25400
C3910       C  0.06150180  0.66368420  0.87414791     0.37100
C3911       C  0.10120413  0.64716240  0.91184325     0.06700
F3912       F  0.08206486  0.61070561  0.90123390    -0.19200
H3913       H  0.05440801  0.61266222  0.87396566     0.16500
F3914       F  0.05500597  0.68106858  0.86536067    -0.22900
H3915       H  0.08331616  0.67893026  0.89258472     0.18300
C3916       C  0.11871581  0.63565045  0.90837822     0.26300
C3917       C  0.13335421  0.63381963  0.92336689    -0.11400
C3918       C  0.13086014  0.64361194  0.94191402    -0.25400
C3919       C  0.11381225  0.65595490  0.94498912     0.37200
C3920       C  0.09908080  0.65769547  0.92998698    -0.27100
F3921       F  0.12140564  0.62584282  0.89064697    -0.19200
H3922       H  0.14655790  0.62451166  0.92058090     0.16500
F3923       F  0.11077823  0.66528623  0.96290122    -0.22900
H3924       H  0.08557068  0.66652265  0.93287167     0.18300
C3925       C  0.93808468  0.66716272  0.90368762    -0.26900
C3926       C  0.93097346  0.64983071  0.91370663     0.06700
C3927       C  0.93685614  0.63076347  0.90664771     0.26300
C3928       C  0.94936636  0.62909484  0.88982252    -0.11400
C3929       C  0.95629709  0.64633845  0.87946392    -0.25400
C3930       C  0.95070838  0.66550191  0.88676036     0.37100
C3931       C  0.91559718  0.65140388  0.92989694     0.06700
F3932       F  0.92955557  0.61365438  0.91528889    -0.19200
H3933       H  0.95329986  0.61410385  0.88466952     0.16500
F3934       F  0.95677294  0.68258923  0.87720048    -0.22900
H3935       H  0.93350570  0.68200132  0.90876234     0.18300
C3936       C  0.91757092  0.64054675  0.94808996     0.26300
C3937       C  0.90123614  0.63914811  0.96142867    -0.11400
C3938       C  0.88275660  0.64873076  0.95698466    -0.25400
C3939       C  0.88134666  0.66073741  0.93942986     0.37200
C3940       C  0.89762147  0.66200064  0.92608964    -0.27100
F3941       F  0.93510190  0.63086323  0.95268328    -0.19200
H3942       H  0.90290216  0.63012078  0.97501544     0.16500
F3943       F  0.86385128  0.67025654  0.93440752    -0.22900
H3944       H  0.89575011  0.67039320  0.91212498     0.18300
C3945       C  0.97829885  0.76715971  0.73500987    -0.26900
C3946       C  0.99622441  0.75755452  0.74147935     0.06700
C3947       C  0.01438409  0.76253831  0.73155140     0.26300
C3948       C  0.01436313  0.77595775  0.71499886    -0.11400
C3949       C  0.99634094  0.78498660  0.70813618    -0.25400
C3950       C  0.97833582  0.78073729  0.71858757     0.37100
C3951       C  0.99535257  0.74026064  0.75623192     0.06700
F3952       F  0.03189338  0.75315896  0.73676488    -0.19200
H3953       H  0.02830856  0.77847251  0.70683164     0.16500
F3954       F  0.96055358  0.78867769  0.71206599    -0.22900
H3955       H  0.96407526  0.76345041  0.74216386     0.18300
C3956       C  0.00678250  0.73963600  0.77422075     0.26300
C3957       C  0.00644289  0.72236927  0.78691597    -0.11400
C3958       C  0.99510566  0.70519532  0.78166913    -0.25400
C3959       C  0.98354678  0.70614542  0.76375233     0.37200
C3960       C  0.98353018  0.72342910  0.75148951    -0.27100
F3961       F  0.01834600  0.75564601  0.77944824    -0.19200
H3962       H  0.01563471  0.72214720  0.80040956     0.16500
F3963       F  0.97233339  0.69013987  0.75778145    -0.22900
H3964       H  0.97471215  0.72337739  0.73773734     0.18300
C3965       C  0.99931955  0.47504899  0.84055398    -0.26900
C3966       C  0.00396250  0.48694533  0.82349315     0.06700
C3967       C  0.00792697  0.47680843  0.80524826     0.26300
C3968       C  0.00734296  0.45557232  0.80422543    -0.11400
C3969       C  0.00290707  0.44361820  0.82132173    -0.25400
C3970       C  0.99879002  0.45378164  0.83956138     0.37100
C3971       C  0.00436053  0.50975269  0.82467841     0.06700
F3972       F  0.01188172  0.48745155  0.78817083    -0.19200
H3973       H  0.01051778  0.44844935  0.78989420     0.16500
F3974       F  0.99402728  0.44323987  0.85648970    -0.22900
H3975       H  0.99625478  0.48226032  0.85486181     0.18300
C3976       C  0.98833658  0.52069956  0.83349671     0.26300
C3977       C  0.98837197  0.54197939  0.83365822    -0.11400
C3978       C  0.00449675  0.55316333  0.82536620    -0.25400
C3979       C  0.02091320  0.54216572  0.81719941     0.37200
C3980       C  0.02069369  0.52086517  0.81673359    -0.27100
F3981       F  0.97219751  0.51085218  0.84138960    -0.19200
H3982       H  0.97554409  0.54974575  0.84021273     0.16500
F3983       F  0.03711383  0.55191855  0.80930032    -0.22900
H3984       H  0.03345706  0.51299425  0.81016908     0.18300
loop_ 
_geom_bond_atom_site_label_1 
_geom_bond_atom_site_label_2 
_geom_bond_distance 
_geom_bond_site_symmetry_2 
_ccdc_geom_bond_type 
Zn1           O5   1.977   1_455  S
Zn1           O6   2.039       .  S
Zn1          O10   2.067   1_455  S
Zn1          O17   2.127   1_455  S
Zn2           O5   1.917   1_455  S
Zn2           O7   2.071       .  S
Zn2           O9   1.974       .  S
Zn2          O13   1.983       .  S
Zn3           O5   1.929       .  S
Zn3           O8   1.994       .  S
Zn3          O11   2.073       .  S
Zn3          O14   1.978       .  S
Zn4           O5   1.931       .  S
Zn4          O12   1.998       .  S
Zn4          O15   2.018   1_655  S
Zn4          O16   1.999       .  S
O6           C18   1.279       .  A
O7           C19   1.277       .  A
O8           C20   1.275       .  A
O9           C18   1.274       .  A
O10          C20   1.282       .  A
O11          C19   1.278   1_655  A
O12          C21   1.275       .  A
O13          C22   1.272       .  A
O14          C21   1.272       .  A
O15          C22   1.275       .  A
O16          C23   1.270       .  A
O17          C23   1.285       .  A
C18        C3909   1.473       .  S
C19        C3978   1.514       .  S
C20        C3929   1.488       .  S
C21        C3889   1.469       .  S
C22        C3878   1.468       .  S
C23        C3958   1.507       .  S
Zn24         O28   1.930       .  S
Zn24         O29   2.009   1_455  S
Zn24         O33   2.076       .  S
Zn24         O40   2.013       .  S
Zn25         O28   1.936   1_655  S
Zn25         O30   1.971       .  S
Zn25         O32   2.034       .  S
Zn25         O36   2.049       .  S
Zn26         O28   1.931       .  S
Zn26         O31   2.065       .  S
Zn26         O34   2.015   1_455  S
Zn26         O37   2.016       .  S
Zn27         O28   1.933       .  S
Zn27         O35   1.982       .  S
Zn27         O38   2.051       .  S
Zn27         O39   2.001       .  S
O29          C41   1.277       .  A
O30          C42   1.271       .  A
O31          C43   1.278       .  A
O32          C41   1.278       .  A
O33          C43   1.279       .  A
O34          C42   1.278       .  A
O35          C44   1.269       .  A
O36          C45   1.275   1_655  A
O37          C44   1.277       .  A
O38          C45   1.276       .  A
O39          C46   1.275       .  A
O40          C46   1.278       .  A
C41        C3809   1.479       .  S
C42        C3798   1.471       .  S
C43        C3969   1.513       .  S
C44        C3769   1.462       .  S
C45        C3849   1.505       .  S
C46        C3829   1.471       .  S
Zn47         O51   1.936       .  S
Zn47         O52   1.994       .  S
Zn47         O56   2.040       .  S
Zn47         O63   2.032       .  S
Zn48         O51   1.983       .  S
Zn48         O53   2.045       .  S
Zn48         O55   2.112       .  S
Zn48         O59   2.060       .  S
Zn49         O51   1.913       .  S
Zn49         O54   1.969       .  S
Zn49         O57   1.993       .  S
Zn49         O60   2.063       .  S
Zn50         O51   1.918       .  S
Zn50         O58   2.066       .  S
Zn50         O61   1.971       .  S
Zn50         O62   1.985       .  S
O52          C64   1.271       .  A
O53          C65   1.278       .  A
O54          C66   1.272       .  A
O55          C64   1.283       .  A
O56          C66   1.278       .  A
O57          C65   1.274       .  A
O58          C67   1.277       .  A
O59          C68   1.282       .  A
O60          C67   1.277       .  A
O61          C68   1.273       .  A
O62          C69   1.271       .  A
O63          C69   1.279       .  A
C64        C3729   1.497       .  S
C65        C3709   1.486       .  S
C66        C3778   1.470       .  S
C67        C3758   1.512       .  S
C68        C3689   1.482       .  S
C69        C3869   1.479       .  S
Zn70         O74   1.908       .  S
Zn70         O75   2.057       .  S
Zn70         O79   1.956       .  S
Zn70         O86   1.984       .  S
Zn71         O74   1.929       .  S
Zn71         O76   1.964       .  S
Zn71         O78   2.085       .  S
Zn71         O82   1.994       .  S
Zn72         O74   1.940       .  S
Zn72         O77   2.018       .  S
Zn72         O80   2.014       .  S
Zn72         O83   1.997       .  S
Zn73         O74   1.972       .  S
Zn73         O81   2.118       .  S
Zn73         O84   2.042       .  S
Zn73         O85   2.047       .  S
O75          C87   1.277       .  A
O76          C88   1.269       .  A
O77          C89   1.275       .  A
O78          C87   1.279       .  A
O79          C89   1.269       .  A
O80          C88   1.276       .  A
O81          C90   1.284       .  A
O82          C91   1.276       .  A
O83          C90   1.271       .  A
O84          C91   1.279       .  A
O85          C92   1.280       .  A
O86          C92   1.274       .  A
C87        C3749   1.515       .  S
C88        C3789   1.472       .  S
C89        C3898   1.467       .  S
C90        C3669   1.505       .  S
C91        C3658   1.466       .  S
C92        C3629   1.482       .  S
Zn93         O97   1.940       .  S
Zn93         O98   2.000       .  S
Zn93        O102   2.006   1_545  S
Zn93        O109   2.011       .  S
Zn94         O97   1.926       .  S
Zn94         O99   2.086       .  S
Zn94        O101   1.966       .  S
Zn94        O105   1.984       .  S
Zn95         O97   1.918   1_565  S
Zn95        O100   1.954       .  S
Zn95        O103   2.067       .  S
Zn95        O106   1.977       .  S
Zn96         O97   1.978       .  S
Zn96        O104   2.055   1_545  S
Zn96        O107   2.035       .  S
Zn96        O108   2.120       .  S
O98         C110   1.274       .  A
O99         C111   1.278       .  A
O100        C112   1.269       .  A
O101        C110   1.269       .  A
O102        C112   1.275       .  A
O103        C111   1.276   1_565  A
O104        C113   1.280       .  A
O105        C114   1.275       .  A
O106        C113   1.273       .  A
O107        C114   1.279       .  A
O108        C115   1.284       .  A
O109        C115   1.271       .  A
C110       C3509   1.461       .  S
C111       C3609   1.518       .  S
C112       C3529   1.463       .  S
C113       C3549   1.482       .  S
C114       C3569   1.470       .  S
C115       C3589   1.503       .  S
Zn116       O120   1.929       .  S
Zn116       O121   1.996       .  S
Zn116       O125   2.079       .  S
Zn116       O132   1.979       .  S
Zn117       O120   1.985       .  S
Zn117       O122   2.041   1_565  S
Zn117       O124   2.045       .  S
Zn117       O128   2.137       .  S
Zn118       O120   1.926   1_545  S
Zn118       O123   2.069       .  S
Zn118       O126   1.970       .  S
Zn118       O129   1.948       .  S
Zn119       O120   1.937       .  S
Zn119       O127   2.024   1_565  S
Zn119       O130   1.989       .  S
Zn119       O131   2.023       .  S
O121        C133   1.277       .  A
O122        C134   1.278       .  A
O123        C135   1.275       .  A
O124        C133   1.281       .  A
O125        C135   1.277   1_565  A
O126        C134   1.271       .  A
O127        C136   1.276       .  A
O128        C137   1.284       .  A
O129        C136   1.269       .  A
O130        C137   1.269       .  A
O131        C138   1.276       .  A
O132        C138   1.271       .  A
C133       C3478   1.481       .  S
C134       C3458   1.465       .  S
C135       C3618   1.509       .  S
C136       C3409   1.467       .  S
C137       C3489   1.515       .  S
C138       C3429   1.471       .  S
Zn139       O143   1.909       .  S
Zn139       O144   1.980       .  S
Zn139       O148   2.070       .  S
Zn139       O155   1.959       .  S
Zn140       O143   1.965       .  S
Zn140       O145   2.043       .  S
Zn140       O147   2.053       .  S
Zn140       O151   2.131       .  S
Zn141       O143   1.915       .  S
Zn141       O146   2.058       .  S
Zn141       O149   1.973       .  S
Zn141       O152   1.952       .  S
Zn142       O143   1.924       .  S
Zn142       O150   2.017       .  S
Zn142       O153   2.019       .  S
Zn142       O154   2.016       .  S
O144        C156   1.274       .  A
O145        C157   1.280       .  A
O146        C158   1.275       .  A
O147        C156   1.282       .  A
O148        C158   1.276       .  A
O149        C157   1.273       .  A
O150        C159   1.277       .  A
O151        C160   1.286       .  A
O152        C159   1.268       .  A
O153        C160   1.273       .  A
O154        C161   1.277       .  A
O155        C161   1.270       .  A
C156       C3329   1.484       .  S
C157       C3349   1.480       .  S
C158       C3398   1.509       .  S
C159       C3418   1.467       .  S
C160       C3369   1.507       .  S
C161       C3518   1.467       .  S
Zn162       O166   1.929       .  S
Zn162       O167   1.986       .  S
Zn162       O171   2.079       .  S
Zn162       O178   1.986       .  S
Zn163       O166   1.983       .  S
Zn163       O168   2.059       .  S
Zn163       O170   2.053       .  S
Zn163       O174   2.124       .  S
Zn164       O166   1.920       .  S
Zn164       O169   2.045       .  S
Zn164       O172   1.970       .  S
Zn164       O175   1.936       .  S
Zn165       O166   1.947       .  S
Zn165       O173   2.030       .  S
Zn165       O176   2.008       .  S
Zn165       O177   2.022       .  S
O167        C179   1.276       .  A
O168        C180   1.280       .  A
O169        C181   1.273       .  A
O170        C179   1.281       .  A
O171        C181   1.277       .  A
O172        C180   1.270       .  A
O173        C182   1.277       .  A
O174        C183   1.284       .  A
O175        C182   1.268       .  A
O176        C183   1.272       .  A
O177        C184   1.277       .  A
O178        C184   1.271       .  A
C179       C3289   1.483       .  S
C180       C3278   1.485       .  S
C181       C3389   1.507       .  S
C182       C3538   1.461       .  S
C183       C3309   1.503       .  S
C184       C3438   1.473       .  S
Zn185       O189   1.951       .  S
Zn185       O190   1.987       .  S
Zn185       O194   2.021       .  S
Zn185       O201   2.072       .  S
Zn186       O189   1.945       .  S
Zn186       O191   2.095       .  S
Zn186       O193   2.022       .  S
Zn186       O197   2.034   1_556  S
Zn187       O189   1.951   1_554  S
Zn187       O192   2.016   1_554  S
Zn187       O195   2.104   1_554  S
Zn187       O198   2.002       .  S
Zn188       O189   1.955   1_554  S
Zn188       O196   2.035       .  S
Zn188       O199   1.960       .  S
Zn188       O200   2.063       .  S
O190        C202   1.271       .  A
O191        C203   1.281       .  A
O192        C204   1.278       .  A
O193        C202   1.278       .  A
O194        C204   1.278       .  A
O195        C203   1.281       .  A
O196        C205   1.278       .  A
O197        C206   1.280       .  A
O198        C205   1.275       .  A
O199        C206   1.269       .  A
O200        C207   1.276   1_554  A
O201        C207   1.277       .  A
C202       C3189   1.468       .  S
C203       C3249   1.524       .  S
C204       C3469   1.477       .  S
C205       C3209   1.483       .  S
C206       C3169   1.471       .  S
C207       C3229   1.513   1_556  S
Zn208       O212   1.945       .  S
Zn208       O213   2.017   1_556  S
Zn208       O217   2.015       .  S
Zn208       O224   2.092       .  S
Zn209       O212   1.947   1_554  S
Zn209       O214   2.065       .  S
Zn209       O216   1.960       .  S
Zn209       O220   2.018       .  S
Zn210       O212   1.954       .  S
Zn210       O215   1.981       .  S
Zn210       O218   2.081       .  S
Zn210       O221   2.025       .  S
Zn211       O212   1.963       .  S
Zn211       O219   2.010       .  S
Zn211       O222   2.019   1_556  S
Zn211       O223   2.114       .  S
O213        C225   1.277       .  A
O214        C226   1.276   1_554  A
O215        C227   1.272       .  A
O216        C225   1.269       .  A
O217        C227   1.278       .  A
O218        C226   1.277       .  A
O219        C228   1.277       .  A
O220        C229   1.277       .  A
O221        C228   1.278       .  A
O222        C229   1.277       .  A
O223        C230   1.283       .  A
O224        C230   1.281       .  A
C225       C3089   1.460       .  S
C226       C3149   1.517       .  S
C227       C3109   1.466       .  S
C228       C3558   1.479       .  S
C229       C3129   1.477       .  S
C230       C3258   1.530       .  S
Zn231       O235   1.948       .  S
Zn231       O236   2.024       .  S
Zn231       O240   2.071       .  S
Zn231       O247   2.017       .  S
Zn232       O235   1.944       .  S
Zn232       O237   2.012       .  S
Zn232       O239   1.980       .  S
Zn232       O243   2.067       .  S
Zn233       O235   1.951       .  S
Zn233       O238   2.100       .  S
Zn233       O241   2.017       .  S
Zn233       O244   2.014       .  S
Zn234       O235   1.943       .  S
Zn234       O242   2.010       .  S
Zn234       O245   2.035       .  S
Zn234       O246   1.944       .  S
O236        C248   1.278       .  A
O237        C249   1.277       .  A
O238        C250   1.281       .  A
O239        C248   1.270       .  A
O240        C250   1.279       .  A
O241        C249   1.277       .  A
O242        C251   1.275       .  A
O243        C252   1.277       .  A
O244        C251   1.276       .  A
O245        C252   1.273       .  A
O246        C253   1.267       .  A
O247        C253   1.277       .  A
C248       C3178   1.467       .  S
C249       C3038   1.472       .  S
C250       C3069   1.521       .  S
C251       C3009   1.481       .  S
C252       C3058   1.505       .  S
C253       C3098   1.461       .  S
Zn254       O258   1.926       .  S
Zn254       O259   2.002       .  S
Zn254       O263   2.006       .  S
Zn254       O270   2.019       .  S
Zn255       O258   1.979       .  S
Zn255       O260   2.034       .  S
Zn255       O262   2.129       .  S
Zn255       O266   2.034       .  S
Zn256       O258   1.924       .  S
Zn256       O261   1.980       .  S
Zn256       O264   1.997       .  S
Zn256       O267   2.092       .  S
Zn257       O258   1.914       .  S
Zn257       O265   2.078       .  S
Zn257       O268   1.977       .  S
Zn257       O269   1.964       .  S
O259        C271   1.271       .  A
O260        C272   1.279       .  A
O261        C273   1.273       .  A
O262        C271   1.283       .  A
O263        C273   1.277       .  A
O264        C272   1.277       .  A
O265        C274   1.278       .  A
O266        C275   1.279       .  A
O267        C274   1.279       .  A
O268        C275   1.275       .  A
O269        C276   1.270       .  A
O270        C276   1.277       .  A
C271       C3318   1.515       .  S
C272       C2969   1.478       .  S
C273       C3118   1.468       .  S
C274       C3078   1.521       .  S
C275       C2998   1.469       .  S
C276       C3198   1.469       .  S
Zn277       O281   1.954       .  S
Zn277       O282   1.978       .  S
Zn277       O286   2.080       .  S
Zn277       O293   2.041       .  S
Zn278       O281   1.933   1_556  S
Zn278       O283   2.026       .  S
Zn278       O285   2.015   1_556  S
Zn278       O289   2.074       .  S
Zn279       O281   1.920   1_556  S
Zn279       O284   2.061       .  S
Zn279       O287   1.969       .  S
Zn279       O290   2.006       .  S
Zn280       O281   1.945       .  S
Zn280       O288   2.031   1_554  S
Zn280       O291   2.103       .  S
Zn280       O292   2.017       .  S
O282        C294   1.271       .  A
O283        C295   1.278       .  A
O284        C296   1.276       .  A
O285        C294   1.278       .  A
O286        C296   1.279   1_554  A
O287        C295   1.269       .  A
O288        C297   1.279       .  A
O289        C298   1.279   1_556  A
O290        C297   1.277       .  A
O291        C298   1.282       .  A
O292        C299   1.278       .  A
O293        C299   1.280       .  A
C294       C2898   1.469       .  S
C295       C2909   1.466       .  S
C296       C3158   1.510       .  S
C297       C3938   1.482       .  S
C298       C2958   1.520   1_554  S
C299       C2929   1.489       .  S
Zn300       O304   1.949   1_554  S
Zn300       O305   2.030       .  S
Zn300       O309   2.056       .  S
Zn300       O316   1.983       .  S
Zn301       O304   1.951       .  S
Zn301       O306   2.024       .  S
Zn301       O308   2.028   1_556  S
Zn301       O312   2.104       .  S
Zn302       O304   1.950       .  S
Zn302       O307   2.050       .  S
Zn302       O310   2.014       .  S
Zn302       O313   1.977       .  S
Zn303       O304   1.937       .  S
Zn303       O311   2.009       .  S
Zn303       O314   2.074       .  S
Zn303       O315   2.010   1_556  S
O305        C317   1.278       .  A
O306        C318   1.278       .  A
O307        C319   1.275   1_556  A
O308        C317   1.279       .  A
O309        C319   1.275       .  A
O310        C318   1.277       .  A
O311        C320   1.276       .  A
O312        C321   1.282       .  A
O313        C320   1.269       .  A
O314        C321   1.279       .  A
O315        C322   1.276       .  A
O316        C322   1.271       .  A
C317       C2849   1.480       .  S
C318       C3818   1.481       .  S
C319       C2869   1.507       .  S
C320       C2838   1.468       .  S
C321       C2949   1.522       .  S
C322       C2809   1.470       .  S
Zn323       O327   1.981       .  S
Zn323       O328   2.040       .  S
Zn323       O332   2.110       .  S
Zn323       O339   2.057       .  S
Zn324       O327   1.919       .  S
Zn324       O329   1.954       .  S
Zn324       O331   1.976       .  S
Zn324       O335   2.070       .  S
Zn325       O327   1.950       .  S
Zn325       O330   2.013       .  S
Zn325       O333   2.042       .  S
Zn325       O336   2.016       .  S
Zn326       O327   1.925       .  S
Zn326       O334   1.972       .  S
Zn326       O337   2.080       .  S
Zn326       O338   1.986       .  S
O328        C340   1.279       .  A
O329        C341   1.269       .  A
O330        C342   1.271       .  A
O331        C340   1.273       .  A
O332        C342   1.282       .  A
O333        C341   1.277       .  A
O334        C343   1.272       .  A
O335        C344   1.276       .  A
O336        C343   1.277       .  A
O337        C344   1.277       .  A
O338        C345   1.274       .  A
O339        C345   1.280       .  A
C340       C3018   1.478       .  S
C341       C2889   1.469       .  S
C342       C2778   1.500       .  S
C343       C2818   1.470       .  S
C344       C2789   1.516       .  S
C345       C2749   1.477       .  S
Zn346       O350   1.944       .  S
Zn346       O351   1.998       .  S
Zn346       O355   2.018       .  S
Zn346       O362   2.014       .  S
Zn347       O350   1.980       .  S
Zn347       O352   2.060       .  S
Zn347       O354   2.109       .  S
Zn347       O358   2.056       .  S
Zn348       O350   1.924       .  S
Zn348       O353   1.970       .  S
Zn348       O356   1.995       .  S
Zn348       O359   2.057       .  S
Zn349       O350   1.934       .  S
Zn349       O357   2.085       .  S
Zn349       O360   1.996       .  S
Zn349       O361   1.994       .  S
O351        C363   1.271       .  A
O352        C364   1.281       .  A
O353        C365   1.269       .  A
O354        C363   1.283       .  A
O355        C365   1.275       .  A
O356        C364   1.275       .  A
O357        C366   1.279       .  A
O358        C367   1.280       .  A
O359        C366   1.276       .  A
O360        C367   1.276       .  A
O361        C368   1.273       .  A
O362        C368   1.275       .  A
C363       C3678   1.497       .  S
C364       C2729   1.489       .  S
C365       C2829   1.473       .  S
C366       C2798   1.511       .  S
C367       C2978   1.485       .  S
C368       C2918   1.468       .  S
Zn369       O373   1.926       .  S
Zn369       O374   2.013       .  S
Zn369       O378   1.963       .  S
Zn369       O385   2.073       .  S
Zn370       O373   1.966       .  S
Zn370       O375   2.102       .  S
Zn370       O377   2.054       .  S
Zn370       O381   2.043   1_655  S
Zn371       O373   1.946       .  S
Zn371       O376   2.000       .  S
Zn371       O379   2.011       .  S
Zn371       O382   2.008   1_655  S
Zn372       O373   1.922   1_455  S
Zn372       O380   1.974       .  S
Zn372       O383   1.971       .  S
Zn372       O384   2.076       .  S
O374        C386   1.277       .  A
O375        C387   1.282       .  A
O376        C388   1.275       .  A
O377        C386   1.280       .  A
O378        C388   1.270       .  A
O379        C387   1.270       .  A
O380        C389   1.271       .  A
O381        C390   1.280       .  A
O382        C389   1.273       .  A
O383        C390   1.272       .  A
O384        C391   1.277   1_455  A
O385        C391   1.277       .  A
C386       C2669   1.483       .  S
C387       C3949   1.492       .  S
C388       C2649   1.463       .  S
C389       C2629   1.463       .  S
C390       C2689   1.478       .  S
C391       C2709   1.512       .  S
Zn392       O396   1.942       .  S
Zn392       O397   1.961       .  S
Zn392       O401   2.049       .  S
Zn392       O408   2.033       .  S
Zn393       O396   1.947       .  S
Zn393       O398   2.014   1_655  S
Zn393       O400   2.021       .  S
Zn393       O404   2.080       .  S
Zn394       O396   1.937   1_455  S
Zn394       O399   2.052       .  S
Zn394       O402   1.982       .  S
Zn394       O405   2.026       .  S
Zn395       O396   1.940       .  S
Zn395       O403   2.021   1_655  S
Zn395       O406   2.083       .  S
Zn395       O407   2.018       .  S
O397        C409   1.270       .  A
O398        C410   1.277       .  A
O399        C411   1.276       .  A
O400        C409   1.277       .  A
O401        C411   1.275   1_655  A
O402        C410   1.273       .  A
O403        C412   1.278       .  A
O404        C413   1.279       .  A
O405        C412   1.278       .  A
O406        C413   1.280       .  A
O407        C414   1.277       .  A
O408        C414   1.278       .  A
C409       C2549   1.466       .  S
C410       C2529   1.469       .  S
C411       C2609   1.504       .  S
C412       C2569   1.482       .  S
C413       C2718   1.519       .  S
C414       C2589   1.479       .  S
Zn415       O419   1.922       .  S
Zn415       O420   2.062       .  S
Zn415       O424   2.011       .  S
Zn415       O431   1.976       .  S
Zn416       O419   1.943       .  S
Zn416       O421   2.027       .  S
Zn416       O423   2.063       .  S
Zn416       O427   1.967       .  S
Zn417       O419   1.942       .  S
Zn417       O422   2.011       .  S
Zn417       O425   2.009       .  S
Zn417       O428   2.098       .  S
Zn418       O419   1.927       .  S
Zn418       O426   2.056       .  S
Zn418       O429   2.003       .  S
Zn418       O430   2.008       .  S
O420        C432   1.278       .  A
O421        C433   1.279       .  A
O422        C434   1.277       .  A
O423        C432   1.277       .  A
O424        C434   1.277       .  A
O425        C433   1.277       .  A
O426        C435   1.276       .  A
O427        C436   1.270       .  A
O428        C435   1.281       .  A
O429        C436   1.277       .  A
O430        C437   1.275       .  A
O431        C437   1.270       .  A
C432       C2489   1.512       .  S
C433       C2469   1.479       .  S
C434       C3698   1.477       .  S
C435       C2509   1.516       .  S
C436       C2538   1.466       .  S
C437       C2638   1.460       .  S
Zn438       O442   1.941       .  S
Zn438       O443   2.077       .  S
Zn438       O447   2.001       .  S
Zn438       O454   2.030       .  S
Zn439       O442   1.932       .  S
Zn439       O444   2.012       .  S
Zn439       O446   2.064       .  S
Zn439       O450   2.003       .  S
Zn440       O442   1.939       .  S
Zn440       O445   1.999       .  S
Zn440       O448   1.966       .  S
Zn440       O451   2.047       .  S
Zn441       O442   1.924       .  S
Zn441       O449   2.042       .  S
Zn441       O452   1.964       .  S
Zn441       O453   2.007       .  S
O443        C455   1.279       .  A
O444        C456   1.276       .  A
O445        C457   1.275       .  A
O446        C455   1.278       .  A
O447        C457   1.275       .  A
O448        C456   1.269       .  A
O449        C458   1.274       .  A
O450        C459   1.275       .  A
O451        C458   1.274       .  A
O452        C459   1.271       .  A
O453        C460   1.276       .  A
O454        C460   1.278       .  A
C455       C2518   1.509       .  S
C456       C2558   1.463       .  S
C457       C2429   1.469       .  S
C458       C2449   1.500       .  S
C459       C2658   1.468       .  S
C460       C3638   1.483       .  S
Zn461       O465   1.918       .  S
Zn461       O466   1.972       .  S
Zn461       O470   2.086       .  S
Zn461       O477   1.984       .  S
Zn462       O465   1.944   1_565  S
Zn462       O467   2.016       .  S
Zn462       O469   2.020   1_565  S
Zn462       O473   1.994       .  S
Zn463       O465   1.921   1_565  S
Zn463       O468   2.076       .  S
Zn463       O471   1.954       .  S
Zn463       O474   1.975       .  S
Zn464       O465   1.987       .  S
Zn464       O472   2.081   1_545  S
Zn464       O475   2.131       .  S
Zn464       O476   2.049       .  S
O466        C478   1.270       .  A
O467        C479   1.275       .  A
O468        C480   1.277   1_565  A
O469        C478   1.276       .  A
O470        C480   1.278       .  A
O471        C479   1.269       .  A
O472        C481   1.283       .  A
O473        C482   1.270       .  A
O474        C481   1.274       .  A
O475        C482   1.285   1_545  A
O476        C483   1.280       .  A
O477        C483   1.276       .  A
C478       C2349   1.471       .  S
C479       C2369   1.467       .  S
C480       C2409   1.519       .  S
C481       C2678   1.486       .  S
C482       C3598   1.507       .  S
C483       C2389   1.479       .  S
Zn484       O488   1.934       .  S
Zn484       O489   2.042       .  S
Zn484       O493   1.952       .  S
Zn484       O500   2.014       .  S
Zn485       O488   1.945   1_545  S
Zn485       O490   1.978       .  S
Zn485       O492   2.061       .  S
Zn485       O496   2.032       .  S
Zn486       O488   1.945   1_545  S
Zn486       O491   2.026   1_545  S
Zn486       O494   2.008       .  S
Zn486       O497   2.084       .  S
Zn487       O488   1.941       .  S
Zn487       O495   2.092   1_565  S
Zn487       O498   2.017   1_565  S
Zn487       O499   2.015       .  S
O489        C501   1.274       .  A
O490        C502   1.272       .  A
O491        C503   1.277       .  A
O492        C501   1.276   1_545  A
O493        C503   1.268       .  A
O494        C502   1.278       .  A
O495        C504   1.281       .  A
O496        C505   1.279       .  A
O497        C504   1.280       .  A
O498        C505   1.277       .  A
O499        C506   1.277       .  A
O500        C506   1.277       .  A
C501       C2329   1.504       .  S
C502       C2269   1.469       .  S
C503       C2298   1.466       .  S
C504       C2418   1.522       .  S
C505       C2318   1.488       .  S
C506       C2598   1.481       .  S
Zn507       O511   1.952       .  S
Zn507       O512   2.041       .  S
Zn507       O516   2.125       .  S
Zn507       O523   2.037       .  S
Zn508       O511   1.930       .  S
Zn508       O513   1.973       .  S
Zn508       O515   1.997       .  S
Zn508       O519   2.046       .  S
Zn509       O511   1.938       .  S
Zn509       O514   2.065       .  S
Zn509       O517   2.012       .  S
Zn509       O520   2.005       .  S
Zn510       O511   1.958       .  S
Zn510       O518   1.978       .  S
Zn510       O521   2.065       .  S
Zn510       O522   2.037       .  S
O512        C524   1.280       .  A
O513        C525   1.269       .  A
O514        C526   1.278       .  A
O515        C524   1.276       .  A
O516        C526   1.285       .  A
O517        C525   1.275       .  A
O518        C527   1.271       .  A
O519        C528   1.275       .  A
O520        C527   1.277       .  A
O521        C528   1.277       .  A
O522        C529   1.279       .  A
O523        C529   1.281       .  A
C524       C3338   1.480       .  S
C525       C2358   1.468       .  S
C526       C2249   1.525       .  S
C527       C2278   1.468       .  S
C528       C2229   1.504       .  S
C529       C2218   1.492       .  S
Zn530       O534   1.933       .  S
Zn530       O535   1.996       .  S
Zn530       O539   1.940       .  S
Zn530       O546   2.045       .  S
Zn531       O534   1.948       .  S
Zn531       O536   2.106       .  S
Zn531       O538   2.026       .  S
Zn531       O542   2.019       .  S
Zn532       O534   1.937       .  S
Zn532       O537   2.025       .  S
Zn532       O540   2.096       .  S
Zn532       O543   2.024       .  S
Zn533       O534   1.937       .  S
Zn533       O541   1.951       .  S
Zn533       O544   2.004       .  S
Zn533       O545   2.057       .  S
O535        C547   1.275       .  A
O536        C548   1.283       .  A
O537        C549   1.278       .  A
O538        C547   1.279       .  A
O539        C549   1.267       .  A
O540        C548   1.281       .  A
O541        C550   1.268       .  A
O542        C551   1.279       .  A
O543        C550   1.279       .  A
O544        C551   1.276       .  A
O545        C552   1.274       .  A
O546        C552   1.273       .  A
C547       C3269   1.478       .  S
C548       C2258   1.528       .  S
C549       C2378   1.460       .  S
C550       C2289   1.463       .  S
C551       C2189   1.473       .  S
C552       C2458   1.506       .  S
Zn553       O557   1.928       .  S
Zn553       O558   2.072       .  S
Zn553       O562   2.033       .  S
Zn553       O569   1.979       .  S
Zn554       O557   1.914   1_545  S
Zn554       O559   1.986       .  S
Zn554       O561   2.041       .  S
Zn554       O565   1.962       .  S
Zn555       O557   1.928       .  S
Zn555       O560   1.994       .  S
Zn555       O563   2.015   1_565  S
Zn555       O566   2.102       .  S
Zn556       O557   1.914       .  S
Zn556       O564   2.041       .  S
Zn556       O567   1.984   1_565  S
Zn556       O568   1.987       .  S
O558        C570   1.281   1_565  A
O559        C571   1.274       .  A
O560        C572   1.275       .  A
O561        C570   1.276       .  A
O562        C572   1.280       .  A
O563        C571   1.278       .  A
O564        C573   1.274       .  A
O565        C574   1.269       .  A
O566        C573   1.281       .  A
O567        C574   1.273       .  A
O568        C575   1.274       .  A
O569        C575   1.271       .  A
C570       C2338   1.506       .  S
C571       C2149   1.465       .  S
C572       C3138   1.481       .  S
C573       C2169   1.515       .  S
C574       C2118   1.467       .  S
C575       C2138   1.455       .  S
Zn576       O580   1.922       .  S
Zn576       O581   1.989       .  S
Zn576       O585   1.968       .  S
Zn576       O592   2.049       .  S
Zn577       O580   1.976       .  S
Zn577       O582   2.097       .  S
Zn577       O584   2.054       .  S
Zn577       O588   2.031   1_565  S
Zn578       O580   1.942   1_545  S
Zn578       O583   2.009   1_545  S
Zn578       O586   2.004       .  S
Zn578       O589   1.992       .  S
Zn579       O580   1.939   1_545  S
Zn579       O587   2.000       .  S
Zn579       O590   1.993       .  S
Zn579       O591   2.080       .  S
O581        C593   1.273       .  A
O582        C594   1.281   1_565  A
O583        C595   1.274       .  A
O584        C593   1.279       .  A
O585        C595   1.271       .  A
O586        C594   1.269       .  A
O587        C596   1.273       .  A
O588        C597   1.278       .  A
O589        C596   1.273       .  A
O590        C597   1.275       .  A
O591        C598   1.278   1_545  A
O592        C598   1.275       .  A
C593       C3218   1.484       .  S
C594       C2089   1.490       .  S
C595       C2049   1.464       .  S
C596       C2038   1.473       .  S
C597       C2069   1.482       .  S
C598       C2178   1.511       .  S
Zn599       O603   1.976       .  S
Zn599       O604   2.045       .  S
Zn599       O608   2.079       .  S
Zn599       O615   2.136       .  S
Zn600       O603   1.928       .  S
Zn600       O605   2.105       .  S
Zn600       O607   2.019       .  S
Zn600       O611   1.989       .  S
Zn601       O603   1.928       .  S
Zn601       O606   1.978       .  S
Zn601       O609   2.068       .  S
Zn601       O612   1.980       .  S
Zn602       O603   1.928       .  S
Zn602       O610   1.996       .  S
Zn602       O613   1.994       .  S
Zn602       O614   1.998       .  S
O604        C616   1.280       .  A
O605        C617   1.281       .  A
O606        C618   1.275       .  A
O607        C616   1.279       .  A
O608        C618   1.285       .  A
O609        C617   1.276       .  A
O610        C619   1.273       .  A
O611        C620   1.275       .  A
O612        C619   1.270       .  A
O613        C620   1.273       .  A
O614        C621   1.270       .  A
O615        C621   1.286       .  A
C616       C2209   1.491       .  S
C617       C2018   1.524       .  S
C618       C1969   1.489       .  S
C619       C2029   1.463       .  S
C620       C2109   1.460       .  S
C621       C1989   1.513       .  S
Zn622       O626   1.929       .  S
Zn622       O627   2.021       .  S
Zn622       O631   2.009       .  S
Zn622       O638   2.085       .  S
Zn623       O626   1.921       .  S
Zn623       O628   2.036       .  S
Zn623       O630   1.945       .  S
Zn623       O634   1.998       .  S
Zn624       O626   1.939       .  S
Zn624       O629   1.961       .  S
Zn624       O632   2.069       .  S
Zn624       O635   2.006       .  S
Zn625       O626   1.939       .  S
Zn625       O633   2.012       .  S
Zn625       O636   2.016       .  S
Zn625       O637   2.107       .  S
O627        C639   1.278       .  A
O628        C640   1.273       .  A
O629        C641   1.271       .  A
O630        C639   1.267       .  A
O631        C641   1.277       .  A
O632        C640   1.275       .  A
O633        C642   1.277       .  A
O634        C643   1.275       .  A
O635        C642   1.277       .  A
O636        C643   1.278       .  A
O637        C644   1.282       .  A
O638        C644   1.280       .  A
C639       C2058   1.454       .  S
C640       C3049   1.501       .  S
C641       C2129   1.465       .  S
C642       C2198   1.474       .  S
C643       C1958   1.479       .  S
C644       C2009   1.525       .  S
Zn645       O649   1.947       .  S
Zn645       O650   2.060       .  S
Zn645       O654   2.005       .  S
Zn645       O661   1.975       .  S
Zn646       O649   1.921   1_556  S
Zn646       O651   2.005       .  S
Zn646       O653   2.039       .  S
Zn646       O657   1.961       .  S
Zn647       O649   1.942       .  S
Zn647       O652   2.002       .  S
Zn647       O655   2.021   1_554  S
Zn647       O658   2.082       .  S
Zn648       O649   1.931       .  S
Zn648       O656   2.060       .  S
Zn648       O659   2.001   1_554  S
Zn648       O660   1.999       .  S
O650        C662   1.276       .  A
O651        C663   1.276       .  A
O652        C664   1.276       .  A
O653        C662   1.275   1_556  A
O654        C664   1.277       .  A
O655        C663   1.277       .  A
O656        C665   1.276       .  A
O657        C666   1.269       .  A
O658        C665   1.280       .  A
O659        C666   1.275       .  A
O660        C667   1.276       .  A
O661        C667   1.269       .  A
C662       C2878   1.502       .  S
C663       C3578   1.476       .  S
C664       C2158   1.475       .  S
C665       C1938   1.514       .  S
C666       C1909   1.467       .  S
C667       C1898   1.462       .  S
Zn668       O672   1.923       .  S
Zn668       O673   1.989       .  S
Zn668       O677   2.010   1_554  S
Zn668       O684   1.994       .  S
Zn669       O672   1.970   1_556  S
Zn669       O674   2.028       .  S
Zn669       O676   2.098       .  S
Zn669       O680   2.036   1_556  S
Zn670       O672   1.923   1_556  S
Zn670       O675   1.978       .  S
Zn670       O678   1.984       .  S
Zn670       O681   2.059       .  S
Zn671       O672   1.933       .  S
Zn671       O679   2.073       .  S
Zn671       O682   2.005       .  S
Zn671       O683   1.991       .  S
O673        C685   1.269       .  A
O674        C686   1.278       .  A
O675        C687   1.271       .  A
O676        C685   1.280   1_556  A
O677        C687   1.274       .  A
O678        C686   1.273       .  A
O679        C688   1.278       .  A
O680        C689   1.278       .  A
O681        C688   1.276   1_556  A
O682        C689   1.278       .  A
O683        C690   1.272       .  A
O684        C690   1.274       .  A
C685       C1878   1.500       .  S
C686       C3449   1.478       .  S
C687       C1849   1.467       .  S
C688       C1929   1.506       .  S
C689       C2078   1.469       .  S
C690       C1838   1.464       .  S
Zn691       O695   1.936       .  S
Zn691       O696   2.013       .  S
Zn691       O700   2.099       .  S
Zn691       O707   1.989       .  S
Zn692       O695   1.972       .  S
Zn692       O697   2.035       .  S
Zn692       O699   2.024       .  S
Zn692       O703   2.099       .  S
Zn693       O695   1.939       .  S
Zn693       O698   2.064       .  S
Zn693       O701   2.005       .  S
Zn693       O704   1.996       .  S
Zn694       O695   1.947       .  S
Zn694       O702   1.982       .  S
Zn694       O705   2.004       .  S
Zn694       O706   2.008       .  S
O696        C708   1.278       .  A
O697        C709   1.278       .  A
O698        C710   1.277       .  A
O699        C708   1.277       .  A
O700        C710   1.281       .  A
O701        C709   1.276       .  A
O702        C711   1.273       .  A
O703        C712   1.280       .  A
O704        C711   1.274       .  A
O705        C712   1.268       .  A
O706        C713   1.273       .  A
O707        C713   1.273       .  A
C708       C2758   1.484       .  S
C709       C1789   1.483       .  S
C710       C1809   1.516       .  S
C711       C1829   1.462       .  S
C712       C1998   1.490       .  S
C713       C1889   1.464       .  S
Zn714       O718   1.928       .  S
Zn714       O719   1.991       .  S
Zn714       O723   1.941       .  S
Zn714       O730   2.081       .  S
Zn715       O718   1.983       .  S
Zn715       O720   2.135       .  S
Zn715       O722   2.071       .  S
Zn715       O726   2.050       .  S
Zn716       O718   1.940       .  S
Zn716       O721   2.012       .  S
Zn716       O724   2.016       .  S
Zn716       O727   2.018       .  S
Zn717       O718   1.929       .  S
Zn717       O725   1.986       .  S
Zn717       O728   1.980       .  S
Zn717       O729   2.072       .  S
O719        C731   1.275       .  A
O720        C732   1.286       .  A
O721        C733   1.275       .  A
O722        C731   1.281       .  A
O723        C733   1.267       .  A
O724        C732   1.273       .  A
O725        C734   1.272       .  A
O726        C735   1.282       .  A
O727        C734   1.276       .  A
O728        C735   1.275       .  A
O729        C736   1.276       .  A
O730        C736   1.277       .  A
C731       C2738   1.483       .  S
C732       C3378   1.518       .  S
C733       C1918   1.464       .  S
C734       C1858   1.478       .  S
C735       C1769   1.467       .  S
C736       C1818   1.519       .  S
Zn737       O741   1.944       .  S
Zn737       O742   2.076   1_556  S
Zn737       O746   2.014       .  S
Zn737       O753   2.019   1_556  S
Zn738       O741   1.944       .  S
Zn738       O743   2.019       .  S
Zn738       O745   2.082       .  S
Zn738       O749   2.001   1_556  S
Zn739       O741   1.946       .  S
Zn739       O744   1.959       .  S
Zn739       O747   2.003       .  S
Zn739       O750   2.037       .  S
Zn740       O741   1.942   1_554  S
Zn740       O748   2.049       .  S
Zn740       O751   2.016       .  S
Zn740       O752   1.985       .  S
O742        C754   1.279       .  A
O743        C755   1.277       .  A
O744        C756   1.268       .  A
O745        C754   1.280   1_556  A
O746        C756   1.277       .  A
O747        C755   1.274       .  A
O748        C757   1.277   1_554  A
O749        C758   1.275       .  A
O750        C757   1.273       .  A
O751        C758   1.277       .  A
O752        C759   1.271       .  A
O753        C759   1.277       .  A
C754       C1749   1.515       .  S
C755       C3838   1.476       .  S
C756       C1718   1.460       .  S
C757       C1869   1.501       .  S
C758       C1738   1.476       .  S
C759       C1689   1.474       .  S
Zn760       O764   1.925   1_554  S
Zn760       O765   1.977       .  S
Zn760       O769   2.078       .  S
Zn760       O776   2.000       .  S
Zn761       O764   1.946   1_554  S
Zn761       O766   2.016   1_554  S
Zn761       O768   2.011       .  S
Zn761       O772   2.004       .  S
Zn762       O764   1.936       .  S
Zn762       O767   2.089       .  S
Zn762       O770   1.977       .  S
Zn762       O773   1.997       .  S
Zn763       O764   1.970       .  S
Zn763       O771   2.024       .  S
Zn763       O774   2.102       .  S
Zn763       O775   2.036   1_556  S
O765        C777   1.271       .  A
O766        C778   1.275       .  A
O767        C779   1.280       .  A
O768        C777   1.276       .  A
O769        C779   1.279   1_554  A
O770        C778   1.271       .  A
O771        C780   1.277       .  A
O772        C781   1.270       .  A
O773        C780   1.275       .  A
O774        C781   1.281   1_556  A
O775        C782   1.278       .  A
O776        C782   1.276       .  A
C777       C1629   1.472       .  S
C778       C1658   1.466       .  S
C779       C1758   1.520       .  S
C780       C3918   1.471       .  S
C781       C3238   1.499       .  S
C782       C1678   1.482       .  S
Zn783       O787   1.935       .  S
Zn783       O788   2.040       .  S
Zn783       O792   1.963       .  S
Zn783       O799   2.019       .  S
Zn784       O787   1.955       .  S
Zn784       O789   2.001       .  S
Zn784       O791   2.078       .  S
Zn784       O795   2.034       .  S
Zn785       O787   1.945       .  S
Zn785       O790   2.034       .  S
Zn785       O793   2.011       .  S
Zn785       O796   2.075       .  S
Zn786       O787   1.946       .  S
Zn786       O794   2.079       .  S
Zn786       O797   2.015       .  S
Zn786       O798   2.007       .  S
O788        C800   1.275       .  A
O789        C801   1.274       .  A
O790        C802   1.278       .  A
O791        C800   1.278       .  A
O792        C802   1.269       .  A
O793        C801   1.278       .  A
O794        C803   1.279       .  A
O795        C804   1.279       .  A
O796        C803   1.278       .  A
O797        C804   1.277       .  A
O798        C805   1.275       .  A
O799        C805   1.276       .  A
C800       C1589   1.506       .  S
C801       C1698   1.473       .  S
C802       C1638   1.471       .  S
C803       C1609   1.514       .  S
C804       C1798   1.483       .  S
C805       C3029   1.482       .  S
Zn806       O810   1.915       .  S
Zn806       O811   1.981       .  S
Zn806       O815   1.992       .  S
Zn806       O822   2.084       .  S
Zn807       O810   1.931       .  S
Zn807       O812   1.991       .  S
Zn807       O814   2.022       .  S
Zn807       O818   2.019       .  S
Zn808       O810   1.971       .  S
Zn808       O813   2.037       .  S
Zn808       O816   2.100       .  S
Zn808       O819   2.039       .  S
Zn809       O810   1.905       .  S
Zn809       O817   1.988       .  S
Zn809       O820   1.954       .  S
Zn809       O821   2.066       .  S
O811        C823   1.272       .  A
O812        C824   1.270       .  A
O813        C825   1.280       .  A
O814        C823   1.277       .  A
O815        C825   1.277       .  A
O816        C824   1.281       .  A
O817        C826   1.275       .  A
O818        C827   1.277       .  A
O819        C826   1.277       .  A
O820        C827   1.270       .  A
O821        C828   1.277       .  A
O822        C828   1.279       .  A
C823       C1649   1.476       .  S
C824       C3738   1.504       .  S
C825       C2989   1.476       .  S
C826       C1778   1.483       .  S
C827       C1709   1.466       .  S
C828       C1618   1.517       .  S
Zn829       O833   1.912   1_655  S
Zn829       O834   2.055       .  S
Zn829       O838   1.985       .  S
Zn829       O845   1.958       .  S
Zn830       O833   1.922       .  S
Zn830       O835   2.014       .  S
Zn830       O837   2.079       .  S
Zn830       O841   1.973       .  S
Zn831       O833   1.966       .  S
Zn831       O836   2.051   1_455  S
Zn831       O839   2.038       .  S
Zn831       O842   2.087       .  S
Zn832       O833   1.950       .  S
Zn832       O840   2.016       .  S
Zn832       O843   2.022       .  S
Zn832       O844   2.041   1_455  S
O834        C846   1.275   1_655  A
O835        C847   1.278       .  A
O836        C848   1.279       .  A
O837        C846   1.278       .  A
O838        C848   1.274       .  A
O839        C847   1.277       .  A
O840        C849   1.273       .  A
O841        C850   1.272       .  A
O842        C849   1.281       .  A
O843        C850   1.278       .  A
O844        C851   1.277       .  A
O845        C851   1.269       .  A
C846       C1569   1.511       .  S
C847       C1669   1.469       .  S
C848       C2938   1.482       .  S
C849       C2618   1.498       .  S
C850       C1529   1.474       .  S
C851       C1558   1.465       .  S
Zn852       O856   1.934       .  S
Zn852       O857   2.012       .  S
Zn852       O861   1.991   1_455  S
Zn852       O868   2.068       .  S
Zn853       O856   1.943       .  S
Zn853       O858   2.059       .  S
Zn853       O860   1.978       .  S
Zn853       O864   2.020       .  S
Zn854       O856   1.931   1_655  S
Zn854       O859   1.962       .  S
Zn854       O862   2.050       .  S
Zn854       O865   2.018       .  S
Zn855       O856   1.938       .  S
Zn855       O863   2.027   1_455  S
Zn855       O866   1.986       .  S
Zn855       O867   2.085       .  S
O857        C869   1.277       .  A
O858        C870   1.276       .  A
O859        C871   1.269       .  A
O860        C869   1.271       .  A
O861        C871   1.274       .  A
O862        C870   1.276   1_655  A
O863        C872   1.278       .  A
O864        C873   1.278       .  A
O865        C872   1.277       .  A
O866        C873   1.275       .  A
O867        C874   1.279       .  A
O868        C874   1.277       .  A
C869       C1469   1.473       .  S
C870       C1518   1.508   1_455  S
C871       C1498   1.455       .  S
C872       C2858   1.485       .  S
C873       C1729   1.471       .  S
C874       C1578   1.507       .  S
Zn875       O879   1.939       .  S
Zn875       O880   2.013       .  S
Zn875       O884   2.003       .  S
Zn875       O891   2.072       .  S
Zn876       O879   1.937       .  S
Zn876       O881   2.047       .  S
Zn876       O883   1.969       .  S
Zn876       O887   2.012       .  S
Zn877       O879   1.943       .  S
Zn877       O882   1.972       .  S
Zn877       O885   2.045       .  S
Zn877       O888   2.015       .  S
Zn878       O879   1.947       .  S
Zn878       O886   2.017       .  S
Zn878       O889   2.029       .  S
Zn878       O890   2.087       .  S
O880        C892   1.276       .  A
O881        C893   1.275       .  A
O882        C894   1.271       .  A
O883        C892   1.269       .  A
O884        C894   1.275       .  A
O885        C893   1.274       .  A
O886        C895   1.277       .  A
O887        C896   1.277       .  A
O888        C895   1.276       .  A
O889        C896   1.278       .  A
O890        C897   1.281       .  A
O891        C897   1.279       .  A
C892       C1478   1.458       .  S
C893       C1598   1.503       .  S
C894       C1538   1.470       .  S
C895       C2478   1.476       .  S
C896       C1438   1.478       .  S
C897       C1458   1.514       .  S
Zn898       O902   1.950       .  S
Zn898       O903   2.029       .  S
Zn898       O907   2.011       .  S
Zn898       O914   2.105       .  S
Zn899       O902   1.943       .  S
Zn899       O904   2.058       .  S
Zn899       O906   2.035       .  S
Zn899       O910   1.967       .  S
Zn900       O902   1.937       .  S
Zn900       O905   1.992       .  S
Zn900       O908   2.047       .  S
Zn900       O911   1.981       .  S
Zn901       O902   1.939       .  S
Zn901       O909   2.018       .  S
Zn901       O912   1.996       .  S
Zn901       O913   2.060       .  S
O903        C915   1.277       .  A
O904        C916   1.277       .  A
O905        C917   1.275       .  A
O906        C915   1.278       .  A
O907        C917   1.278       .  A
O908        C916   1.275       .  A
O909        C918   1.276       .  A
O910        C919   1.271       .  A
O911        C918   1.269       .  A
O912        C919   1.275       .  A
O913        C920   1.277       .  A
O914        C920   1.283       .  A
C915       C1418   1.486       .  S
C916       C2769   1.506       .  S
C917       C2438   1.470       .  S
C918       C1549   1.462       .  S
C919       C1489   1.466       .  S
C920       C1449   1.518       .  S
Zn921       O925   1.949       .  S
Zn921       O926   2.010   1_565  S
Zn921       O930   2.000   1_565  S
Zn921       O937   2.014       .  S
Zn922       O925   1.977       .  S
Zn922       O927   2.055   1_565  S
Zn922       O929   2.131       .  S
Zn922       O933   2.040       .  S
Zn923       O925   1.932   1_545  S
Zn923       O928   1.971       .  S
Zn923       O931   1.997       .  S
Zn923       O934   2.082       .  S
Zn924       O925   1.934       .  S
Zn924       O932   2.071       .  S
Zn924       O935   1.983       .  S
Zn924       O936   1.950       .  S
O926        C938   1.271       .  A
O927        C939   1.280       .  A
O928        C940   1.271       .  A
O929        C938   1.284   1_565  A
O930        C940   1.275       .  A
O931        C939   1.276       .  A
O932        C941   1.276       .  A
O933        C942   1.279       .  A
O934        C941   1.278   1_545  A
O935        C942   1.274       .  A
O936        C943   1.268       .  A
O937        C943   1.274       .  A
C938       C3498   1.508       .  S
C939       C1378   1.487       .  S
C940       C1338   1.470       .  S
C941       C1398   1.517       .  S
C942       C2698   1.466       .  S
C943       C1358   1.470       .  S
Zn944       O948   1.933       .  S
Zn944       O949   1.987       .  S
Zn944       O953   2.068       .  S
Zn944       O960   1.998   1_565  S
Zn945       O948   1.934       .  S
Zn945       O950   2.027       .  S
Zn945       O952   1.974       .  S
Zn945       O956   2.062       .  S
Zn946       O948   1.939   1_545  S
Zn946       O951   2.088   1_545  S
Zn946       O954   2.014   1_545  S
Zn946       O957   1.995       .  S
Zn947       O948   1.946   1_545  S
Zn947       O955   2.016       .  S
Zn947       O958   2.056       .  S
Zn947       O959   1.971       .  S
O949        C961   1.274       .  A
O950        C962   1.279       .  A
O951        C963   1.280       .  A
O952        C961   1.270       .  A
O953        C963   1.277       .  A
O954        C962   1.276       .  A
O955        C964   1.278       .  A
O956        C965   1.277       .  A
O957        C964   1.275       .  A
O958        C965   1.276   1_545  A
O959        C966   1.269       .  A
O960        C966   1.275       .  A
C961       C1298   1.458       .  S
C962       C2578   1.481       .  S
C963       C1389   1.516       .  S
C964       C1318   1.479       .  S
C965       C2098   1.505       .  S
C966       C1278   1.461       .  S
Zn967       O971   1.931       .  S
Zn967       O972   2.006       .  S
Zn967       O976   2.007       .  S
Zn967       O983   2.008       .  S
Zn968       O971   1.933       .  S
Zn968       O973   2.102       .  S
Zn968       O975   1.992       .  S
Zn968       O979   2.007       .  S
Zn969       O971   1.923       .  S
Zn969       O974   1.953       .  S
Zn969       O977   2.069       .  S
Zn969       O980   2.006       .  S
Zn970       O971   1.972       .  S
Zn970       O978   2.050       .  S
Zn970       O981   2.009       .  S
Zn970       O982   2.108       .  S
O972        C984   1.276       .  A
O973        C985   1.281       .  A
O974        C986   1.270       .  A
O975        C984   1.272       .  A
O976        C986   1.275       .  A
O977        C985   1.277       .  A
O978        C987   1.279       .  A
O979        C988   1.278       .  A
O980        C987   1.276       .  A
O981        C988   1.275       .  A
O982        C989   1.281       .  A
O983        C989   1.271       .  A
C984       C1329   1.471       .  S
C985       C1258   1.521       .  S
C986       C1269   1.466       .  S
C987       C1978   1.481       .  S
C988       C3358   1.455       .  S
C989       C1229   1.508       .  S
Zn990       O994   1.938       .  S
Zn990       O995   2.016       .  S
Zn990       O999   2.035       .  S
Zn990      O1006   2.013       .  S
Zn991       O994   1.979       .  S
Zn991       O996   2.042       .  S
Zn991       O998   2.125       .  S
Zn991      O1002   2.066       .  S
Zn992       O994   1.919       .  S
Zn992       O997   1.952       .  S
Zn992      O1000   1.976       .  S
Zn992      O1003   2.086       .  S
Zn993       O994   1.928       .  S
Zn993      O1001   2.070       .  S
Zn993      O1004   1.989       .  S
Zn993      O1005   1.964       .  S
O995       C1007   1.273       .  A
O996       C1008   1.279       .  A
O997       C1009   1.269       .  A
O998       C1007   1.285       .  A
O999       C1009   1.277       .  A
O1000      C1008   1.275       .  A
O1001      C1010   1.275       .  A
O1002      C1011   1.282       .  A
O1003      C1010   1.278       .  A
O1004      C1011   1.275       .  A
O1005      C1012   1.270       .  A
O1006      C1012   1.277       .  A
C1007      C2498   1.513       .  S
C1008      C1949   1.478       .  S
C1009      C1289   1.464       .  S
C1010      C1249   1.520       .  S
C1011      C3298   1.478       .  S
C1012      C1349   1.456       .  S
Zn1013     O1017   1.962       .  S
Zn1013     O1018   2.101       .  S
Zn1013     O1022   2.054   1_655  S
Zn1013     O1029   2.035       .  S
Zn1014     O1017   1.925   1_455  S
Zn1014     O1019   2.004       .  S
Zn1014     O1021   1.995       .  S
Zn1014     O1025   2.026   1_455  S
Zn1015     O1017   1.916   1_455  S
Zn1015     O1020   1.993       .  S
Zn1015     O1023   1.983       .  S
Zn1015     O1026   2.051       .  S
Zn1016     O1017   1.919       .  S
Zn1016     O1024   2.084       .  S
Zn1016     O1027   1.975       .  S
Zn1016     O1028   2.000       .  S
O1018      C1030   1.283   1_655  A
O1019      C1031   1.276       .  A
O1020      C1032   1.276       .  A
O1021      C1030   1.270       .  A
O1022      C1032   1.280       .  A
O1023      C1031   1.270       .  A
O1024      C1033   1.279       .  A
O1025      C1034   1.276       .  A
O1026      C1033   1.276   1_455  A
O1027      C1034   1.271       .  A
O1028      C1035   1.277       .  A
O1029      C1035   1.279       .  A
C1030      C3858   1.499       .  S
C1031      C1169   1.474       .  S
C1032      C1369   1.480       .  S
C1033      C1209   1.513       .  S
C1034      C1189   1.466       .  S
C1035      C2398   1.474       .  S
Zn1036     O1040   1.934       .  S
Zn1036     O1041   1.997       .  S
Zn1036     O1045   1.965       .  S
Zn1036     O1052   2.063       .  S
Zn1037     O1040   1.970       .  S
Zn1037     O1042   2.118       .  S
Zn1037     O1044   2.048       .  S
Zn1037     O1048   2.027   1_655  S
Zn1038     O1040   1.942       .  S
Zn1038     O1043   1.998       .  S
Zn1038     O1046   2.008       .  S
Zn1038     O1049   2.023   1_655  S
Zn1039     O1040   1.925   1_455  S
Zn1039     O1047   1.985       .  S
Zn1039     O1050   1.989       .  S
Zn1039     O1051   2.081       .  S
O1041      C1053   1.273       .  A
O1042      C1054   1.283       .  A
O1043      C1055   1.275       .  A
O1044      C1053   1.278       .  A
O1045      C1055   1.270       .  A
O1046      C1054   1.271       .  A
O1047      C1056   1.272       .  A
O1048      C1057   1.279       .  A
O1049      C1056   1.275       .  A
O1050      C1057   1.275       .  A
O1051      C1058   1.278   1_455  A
O1052      C1058   1.276       .  A
C1053      C2309   1.466       .  S
C1054      C1509   1.504       .  S
C1055      C1149   1.468       .  S
C1056      C1138   1.467       .  S
C1057      C1309   1.474       .  S
C1058      C1218   1.515       .  S
Zn1059     O1063   1.979       .  S
Zn1059     O1064   2.054       .  S
Zn1059     O1068   2.062       .  S
Zn1059     O1075   2.131       .  S
Zn1060     O1063   1.929       .  S
Zn1060     O1065   2.083       .  S
Zn1060     O1067   2.004       .  S
Zn1060     O1071   1.985       .  S
Zn1061     O1063   1.924       .  S
Zn1061     O1066   1.979       .  S
Zn1061     O1069   2.055       .  S
Zn1061     O1072   1.977       .  S
Zn1062     O1063   1.936       .  S
Zn1062     O1070   2.012       .  S
Zn1062     O1073   2.016       .  S
Zn1062     O1074   1.995       .  S
O1064      C1076   1.281       .  A
O1065      C1077   1.279       .  A
O1066      C1078   1.273       .  A
O1067      C1076   1.276       .  A
O1068      C1078   1.282       .  A
O1069      C1077   1.276       .  A
O1070      C1079   1.275       .  A
O1071      C1080   1.273       .  A
O1072      C1079   1.269       .  A
O1073      C1080   1.275       .  A
O1074      C1081   1.271       .  A
O1075      C1081   1.286       .  A
C1076      C3718   1.482       .  S
C1077      C1118   1.513       .  S
C1078      C1429   1.486       .  S
C1079      C1129   1.472       .  S
C1080      C1178   1.467       .  S
C1081      C1238   1.508       .  S
Zn1082     O1086   1.942       .  S
Zn1082     O1087   2.051       .  S
Zn1082     O1091   1.976       .  S
Zn1082     O1098   2.058       .  S
Zn1083     O1086   1.925       .  S
Zn1083     O1088   1.993       .  S
Zn1083     O1090   2.055       .  S
Zn1083     O1094   1.992       .  S
Zn1084     O1086   1.929       .  S
Zn1084     O1089   2.001       .  S
Zn1084     O1092   2.013       .  S
Zn1084     O1095   2.059       .  S
Zn1085     O1086   1.941       .  S
Zn1085     O1093   2.092       .  S
Zn1085     O1096   2.016       .  S
Zn1085     O1097   2.018       .  S
O1087      C1099   1.277       .  A
O1088      C1100   1.271       .  A
O1089      C1101   1.276       .  A
O1090      C1099   1.276       .  A
O1091      C1101   1.273       .  A
O1092      C1100   1.275       .  A
O1093      C1102   1.282       .  A
O1094      C1103   1.276       .  A
O1095      C1102   1.278       .  A
O1096      C1103   1.278       .  A
O1097      C1104   1.277       .  A
O1098      C1104   1.280       .  A
C1099      C2238   1.504       .  S
C1100      C1198   1.463       .  S
C1101      C1158   1.467       .  S
C1102      C1109   1.513       .  S
C1103      C3649   1.477       .  S
C1104      C1409   1.493       .  S
C1105      C1106   1.413       .  A
C1105      C1110   1.412       .  A
C1105      H1115   1.084       .  S
C1106      C1111   1.519   1_655  S
C1106      C1107   1.413       .  A
C1107      C1108   1.410       .  A
C1107      F1112   1.357       .  S
C1108      C1109   1.411       .  A
C1108      H1113   1.084       .  S
C1109      C1110   1.412       .  A
C1110      F1114   1.357       .  S
C1111      C1116   1.412       .  A
C1111      C1120   1.413       .  A
C1116      C1117   1.409       .  A
C1116      F1121   1.357       .  S
C1117      C1118   1.410       .  A
C1117      H1122   1.084       .  S
C1118      C1119   1.414       .  A
C1119      C1120   1.414       .  A
C1119      F1123   1.357       .  S
C1120      H1124   1.084       .  S
C1125      C1126   1.400       .  A
C1125      C1130   1.395       .  A
C1125      H1135   1.084       .  S
C1126      C1131   1.471       .  S
C1126      C1127   1.408       .  A
C1127      C1128   1.390       .  A
C1127      F1132   1.358       .  S
C1128      C1129   1.400       .  A
C1128      H1133   1.084       .  S
C1129      C1130   1.411       .  A
C1130      F1134   1.358       .  S
C1131      C1136   1.409       .  A
C1131      C1140   1.400       .  A
C1136      C1137   1.397       .  A
C1136      F1141   1.358       .  S
C1137      C1138   1.401       .  A
C1137      H1142   1.083       .  S
C1138      C1139   1.406       .  A
C1139      C1140   1.392       .  A
C1139      F1143   1.358       .  S
C1140      H1144   1.083       .  S
C1145      C1146   1.397       .  A
C1145      C1150   1.389       .  A
C1145      H1155   1.084       .  S
C1146      C1151   1.463       .  S
C1146      C1147   1.406       .  A
C1147      C1148   1.390       .  A
C1147      F1152   1.358       .  S
C1148      C1149   1.402       .  A
C1148      H1153   1.084       .  S
C1149      C1150   1.411       .  A
C1150      F1154   1.358       .  S
C1151      C1156   1.399       .  A
C1151      C1160   1.403       .  A
C1156      C1157   1.391       .  A
C1156      F1161   1.357       .  S
C1157      C1158   1.407       .  A
C1157      H1162   1.084       .  S
C1158      C1159   1.406       .  A
C1159      C1160   1.389       .  A
C1159      F1163   1.358       .  S
C1160      H1164   1.085       .  S
C1165      C1166   1.402       .  A
C1165      C1170   1.395       .  A
C1165      H1175   1.085       .  S
C1166      C1171   1.474       .  S
C1166      C1167   1.408       .  A
C1167      C1168   1.389       .  A
C1167      F1172   1.357       .  S
C1168      C1169   1.401       .  A
C1168      H1173   1.084       .  S
C1169      C1170   1.411       .  A
C1170      F1174   1.358       .  S
C1171      C1176   1.403       .  A
C1171      C1180   1.406       .  A
C1176      C1177   1.393       .  A
C1176      F1181   1.358       .  S
C1177      C1178   1.405       .  A
C1177      H1182   1.084       .  S
C1178      C1179   1.403       .  A
C1179      C1180   1.394       .  A
C1179      F1183   1.357       .  S
C1180      H1184   1.084       .  S
C1185      C1186   1.405       .  A
C1185      C1190   1.396       .  A
C1185      H1195   1.082       .  S
C1186      C1191   1.467       .  S
C1186      C1187   1.400       .  A
C1187      C1188   1.393       .  A
C1187      F1192   1.358       .  S
C1188      C1189   1.406       .  A
C1188      H1193   1.082       .  S
C1189      C1190   1.402       .  A
C1190      F1194   1.357       .  S
C1191      C1196   1.401       .  A
C1191      C1200   1.405       .  A
C1196      C1197   1.397       .  A
C1196      F1201   1.357       .  S
C1197      C1198   1.405       .  A
C1197      H1202   1.077       .  S
C1198      C1199   1.401       .  A
C1199      C1200   1.393       .  A
C1199      F1203   1.358       .  S
C1200      H1204   1.078       .  S
C1205      C1206   1.411       .  A
C1205      C1210   1.414       .  A
C1205      H1215   1.084       .  S
C1206      C1211   1.513       .  S
C1206      C1207   1.409   1_655  A
C1207      C1208   1.408       .  A
C1207      F1212   1.357       .  S
C1208      C1209   1.411   1_455  A
C1208      H1213   1.083       .  S
C1209      C1210   1.415       .  A
C1210      F1214   1.357       .  S
C1211      C1216   1.410       .  A
C1211      C1220   1.409   1_655  A
C1216      C1217   1.412       .  A
C1216      F1221   1.357       .  S
C1217      C1218   1.413       .  A
C1217      H1222   1.084       .  S
C1218      C1219   1.414   1_655  A
C1219      C1220   1.411       .  A
C1219      F1223   1.357       .  S
C1220      H1224   1.084       .  S
C1225      C1226   1.403       .  A
C1225      C1230   1.400       .  A
C1225      H1235   1.082       .  S
C1226      C1231   1.504       .  S
C1226      C1227   1.411       .  A
C1227      C1228   1.418       .  A
C1227      F1232   1.357       .  S
C1228      C1229   1.412       .  A
C1228      H1233   1.081       .  S
C1229      C1230   1.414       .  A
C1230      F1234   1.358       .  S
C1231      C1236   1.405       .  A
C1231      C1240   1.412       .  A
C1236      C1237   1.400       .  A
C1236      F1241   1.358       .  S
C1237      C1238   1.411       .  A
C1237      H1242   1.083       .  S
C1238      C1239   1.413       .  A
C1239      C1240   1.419       .  A
C1239      F1243   1.356       .  S
C1240      H1244   1.083       .  S
C1245      C1246   1.414       .  A
C1245      C1250   1.415       .  A
C1245      H1255   1.083       .  S
C1246      C1251   1.533   1_565  S
C1246      C1247   1.419       .  A
C1247      C1248   1.414       .  A
C1247      F1252   1.356       .  S
C1248      C1249   1.410       .  A
C1248      H1253   1.084       .  S
C1249      C1250   1.415       .  A
C1250      F1254   1.357       .  S
C1251      C1256   1.420       .  A
C1251      C1260   1.413       .  A
C1256      C1257   1.417       .  A
C1256      F1261   1.357       .  S
C1257      C1258   1.411       .  A
C1257      H1262   1.084       .  S
C1258      C1259   1.414       .  A
C1259      C1260   1.412       .  A
C1259      F1263   1.357       .  S
C1260      H1264   1.082       .  S
C1265      C1266   1.404       .  A
C1265      C1270   1.392       .  A
C1265      H1275   1.083       .  S
C1266      C1271   1.463       .  S
C1266      C1267   1.398       .  A
C1267      C1268   1.387       .  A
C1267      F1272   1.358       .  S
C1268      C1269   1.407       .  A
C1268      H1273   1.083       .  S
C1269      C1270   1.404       .  A
C1270      F1274   1.358       .  S
C1271      C1276   1.408       .  A
C1271      C1280   1.399       .  A
C1276      C1277   1.388       .  A
C1276      F1281   1.358       .  S
C1277      C1278   1.399       .  A
C1277      H1282   1.084       .  S
C1278      C1279   1.408       .  A
C1279      C1280   1.391       .  A
C1279      F1283   1.358       .  S
C1280      H1284   1.083       .  S
C1285      C1286   1.395       .  A
C1285      C1290   1.389       .  A
C1285      H1295   1.084       .  S
C1286      C1291   1.458       .  S
C1286      C1287   1.405       .  A
C1287      C1288   1.395       .  A
C1287      F1292   1.358       .  S
C1288      C1289   1.400       .  A
C1288      H1293   1.083       .  S
C1289      C1290   1.410       .  A
C1290      F1294   1.358       .  S
C1291      C1296   1.404       .  A
C1291      C1300   1.397       .  A
C1296      C1297   1.388       .  A
C1296      F1301   1.358       .  S
C1297      C1298   1.400       .  A
C1297      H1302   1.084       .  S
C1298      C1299   1.409       .  A
C1299      C1300   1.393       .  A
C1299      F1303   1.358       .  S
C1300      H1304   1.083       .  S
C1305      C1306   1.398       .  A
C1305      C1310   1.392       .  A
C1305      H1315   1.084       .  S
C1306      C1311   1.463       .  S
C1306      C1307   1.401       .  A
C1307      C1308   1.397       .  A
C1307      F1312   1.357       .  S
C1308      C1309   1.407       .  A
C1308      H1313   1.084       .  S
C1309      C1310   1.409       .  A
C1310      F1314   1.358       .  S
C1311      C1316   1.400       .  A
C1311      C1320   1.397       .  A
C1316      C1317   1.397       .  A
C1316      F1321   1.357       .  S
C1317      C1318   1.407       .  A
C1317      H1322   1.084       .  S
C1318      C1319   1.413       .  A
C1319      C1320   1.392       .  A
C1319      F1323   1.358       .  S
C1320      H1324   1.085       .  S
C1325      C1326   1.402       .  A
C1325      C1330   1.396       .  A
C1325      H1335   1.083       .  S
C1326      C1331   1.475       .  S
C1326      C1327   1.410       .  A
C1327      C1328   1.388       .  A
C1327      F1332   1.358       .  S
C1328      C1329   1.399       .  A
C1328      H1333   1.084       .  S
C1329      C1330   1.410       .  A
C1330      F1334   1.358       .  S
C1331      C1336   1.409       .  A
C1331      C1340   1.400       .  A
C1336      C1337   1.393       .  A
C1336      F1341   1.357       .  S
C1337      C1338   1.403       .  A
C1337      H1342   1.084       .  S
C1338      C1339   1.409       .  A
C1339      C1340   1.389       .  A
C1339      F1343   1.358       .  S
C1340      H1344   1.084       .  S
C1345      C1346   1.407       .  A
C1345      C1350   1.395       .  A
C1345      H1355   1.085       .  S
C1346      C1351   1.475       .  S
C1346      C1347   1.409       .  A
C1347      C1348   1.386       .  A
C1347      F1352   1.358       .  S
C1348      C1349   1.398       .  A
C1348      H1353   1.086       .  S
C1349      C1350   1.401       .  A
C1350      F1354   1.357       .  S
C1351      C1356   1.407       .  A
C1351      C1360   1.406       .  A
C1356      C1357   1.384       .  A
C1356      F1361   1.358       .  S
C1357      C1358   1.404       .  A
C1357      H1362   1.083       .  S
C1358      C1359   1.405       .  A
C1359      C1360   1.396       .  A
C1359      F1363   1.357       .  S
C1360      H1364   1.083       .  S
C1365      C1366   1.405       .  A
C1365      C1370   1.404       .  A
C1365      H1375   1.086       .  S
C1366      C1371   1.481       .  S
C1366      C1367   1.404       .  A
C1367      C1368   1.392       .  A
C1367      F1372   1.358       .  S
C1368      C1369   1.404       .  A
C1368      H1373   1.086       .  S
C1369      C1370   1.409       .  A
C1370      F1374   1.357       .  S
C1371      C1376   1.404       .  A
C1371      C1380   1.404       .  A
C1376      C1377   1.391       .  A
C1376      F1381   1.358       .  S
C1377      C1378   1.407       .  A
C1377      H1382   1.085       .  S
C1378      C1379   1.412       .  A
C1379      C1380   1.405       .  A
C1379      F1383   1.357       .  S
C1380      H1384   1.086       .  S
C1385      C1386   1.410       .  A
C1385      C1390   1.412       .  A
C1385      H1395   1.083       .  S
C1386      C1391   1.519       .  S
C1386      C1387   1.414   1_565  A
C1387      C1388   1.414       .  A
C1387      F1392   1.357       .  S
C1388      C1389   1.411   1_545  A
C1388      H1393   1.083       .  S
C1389      C1390   1.415       .  A
C1390      F1394   1.357       .  S
C1391      C1396   1.413       .  A
C1391      C1400   1.411   1_565  A
C1396      C1397   1.413       .  A
C1396      F1401   1.357       .  S
C1397      C1398   1.412       .  A
C1397      H1402   1.084       .  S
C1398      C1399   1.414   1_565  A
C1399      C1400   1.413       .  A
C1399      F1403   1.357       .  S
C1400      H1404   1.084       .  S
C1405      C1406   1.408       .  A
C1405      C1410   1.406       .  A
C1405      H1415   1.084       .  S
C1406      C1411   1.495       .  S
C1406      C1407   1.407       .  A
C1407      C1408   1.397       .  A
C1407      F1412   1.357       .  S
C1408      C1409   1.407       .  A
C1408      H1413   1.084       .  S
C1409      C1410   1.411       .  A
C1410      F1414   1.357       .  S
C1411      C1416   1.410       .  A
C1411      C1420   1.406       .  A
C1416      C1417   1.403       .  A
C1416      F1421   1.357       .  S
C1417      C1418   1.406       .  A
C1417      H1422   1.086       .  S
C1418      C1419   1.409       .  A
C1419      C1420   1.399       .  A
C1419      F1423   1.358       .  S
C1420      H1424   1.085       .  S
C1425      C1426   1.398       .  A
C1425      C1430   1.392       .  A
C1425      H1435   1.085       .  S
C1426      C1431   1.475       .  S
C1426      C1427   1.405       .  A
C1427      C1428   1.402       .  A
C1427      F1432   1.357       .  S
C1428      C1429   1.407       .  A
C1428      H1433   1.084       .  S
C1429      C1430   1.414       .  A
C1430      F1434   1.358       .  S
C1431      C1436   1.404       .  A
C1431      C1440   1.403       .  A
C1436      C1437   1.396       .  A
C1436      F1441   1.358       .  S
C1437      C1438   1.405       .  A
C1437      H1442   1.084       .  S
C1438      C1439   1.408       .  A
C1439      C1440   1.399       .  A
C1439      F1443   1.358       .  S
C1440      H1444   1.084       .  S
C1445      C1446   1.414       .  A
C1445      C1450   1.415       .  A
C1445      H1455   1.082       .  S
C1446      C1451   1.525   1_655  S
C1446      C1447   1.415       .  A
C1447      C1448   1.411       .  A
C1447      F1452   1.357       .  S
C1448      C1449   1.412       .  A
C1448      H1453   1.082       .  S
C1449      C1450   1.413       .  A
C1450      F1454   1.357       .  S
C1451      C1456   1.417       .  A
C1451      C1460   1.413       .  A
C1456      C1457   1.412       .  A
C1456      F1461   1.357       .  S
C1457      C1458   1.410       .  A
C1457      H1462   1.082       .  S
C1458      C1459   1.412       .  A
C1459      C1460   1.413       .  A
C1459      F1463   1.357       .  S
C1460      H1464   1.082       .  S
C1465      C1466   1.396       .  A
C1465      C1470   1.395       .  A
C1465      H1475   1.083       .  S
C1466      C1471   1.458       .  S
C1466      C1467   1.403       .  A
C1467      C1468   1.388       .  A
C1467      F1472   1.358       .  S
C1468      C1469   1.403       .  A
C1468      H1473   1.083       .  S
C1469      C1470   1.413       .  A
C1470      F1474   1.357       .  S
C1471      C1476   1.400       .  A
C1471      C1480   1.402       .  A
C1476      C1477   1.391       .  A
C1476      F1481   1.357       .  S
C1477      C1478   1.403       .  A
C1477      H1482   1.084       .  S
C1478      C1479   1.402       .  A
C1479      C1480   1.392       .  A
C1479      F1483   1.358       .  S
C1480      H1484   1.084       .  S
C1485      C1486   1.400       .  A
C1485      C1490   1.390       .  A
C1485      H1495   1.082       .  S
C1486      C1491   1.454       .  S
C1486      C1487   1.397       .  A
C1487      C1488   1.389       .  A
C1487      F1492   1.358       .  S
C1488      C1489   1.407       .  A
C1488      H1493   1.082       .  S
C1489      C1490   1.406       .  A
C1490      F1494   1.358       .  S
C1491      C1496   1.398       .  A
C1491      C1500   1.402       .  A
C1496      C1497   1.390       .  A
C1496      F1501   1.358       .  S
C1497      C1498   1.405       .  A
C1497      H1502   1.081       .  S
C1498      C1499   1.401       .  A
C1499      C1500   1.388       .  A
C1499      F1503   1.358       .  S
C1500      H1504   1.081       .  S
C1505      C1506   1.408       .  A
C1505      C1510   1.404       .  A
C1505      H1515   1.082       .  S
C1506      C1511   1.515       .  S
C1506      C1507   1.417   1_655  A
C1507      C1508   1.415       .  A
C1507      F1512   1.357       .  S
C1508      C1509   1.408   1_455  A
C1508      H1513   1.083       .  S
C1509      C1510   1.412       .  A
C1510      F1514   1.358       .  S
C1511      C1516   1.414       .  A
C1511      C1520   1.410   1_655  A
C1516      C1517   1.408       .  A
C1516      F1521   1.357       .  S
C1517      C1518   1.409       .  A
C1517      H1522   1.082       .  S
C1518      C1519   1.414   1_655  A
C1519      C1520   1.410       .  A
C1519      F1523   1.357       .  S
C1520      H1524   1.082       .  S
C1525      C1526   1.404       .  A
C1525      C1530   1.392       .  A
C1525      H1535   1.085       .  S
C1526      C1531   1.465       .  S
C1526      C1527   1.399       .  A
C1527      C1528   1.391       .  A
C1527      F1532   1.358       .  S
C1528      C1529   1.409       .  A
C1528      H1533   1.084       .  S
C1529      C1530   1.406       .  A
C1530      F1534   1.357       .  S
C1531      C1536   1.400       .  A
C1531      C1540   1.403       .  A
C1536      C1537   1.391       .  A
C1536      F1541   1.357       .  S
C1537      C1538   1.407       .  A
C1537      H1542   1.085       .  S
C1538      C1539   1.406       .  A
C1539      C1540   1.391       .  A
C1539      F1543   1.358       .  S
C1540      H1544   1.085       .  S
C1545      C1546   1.404       .  A
C1545      C1550   1.392       .  A
C1545      H1555   1.084       .  S
C1546      C1551   1.465       .  S
C1546      C1547   1.400       .  A
C1547      C1548   1.394       .  A
C1547      F1552   1.357       .  S
C1548      C1549   1.405       .  A
C1548      H1553   1.084       .  S
C1549      C1550   1.401       .  A
C1550      F1554   1.358       .  S
C1551      C1556   1.408       .  A
C1551      C1560   1.397       .  A
C1556      C1557   1.397       .  A
C1556      F1561   1.358       .  S
C1557      C1558   1.399       .  A
C1557      H1562   1.083       .  S
C1558      C1559   1.408       .  A
C1559      C1560   1.391       .  A
C1559      F1563   1.358       .  S
C1560      H1564   1.083       .  S
C1565      C1566   1.411       .  A
C1565      C1570   1.412       .  A
C1565      H1575   1.080       .  S
C1566      C1571   1.518       .  S
C1566      C1567   1.413   1_455  A
C1567      C1568   1.411       .  A
C1567      F1572   1.357       .  S
C1568      C1569   1.411   1_655  A
C1568      H1573   1.080       .  S
C1569      C1570   1.413       .  A
C1570      F1574   1.357       .  S
C1571      C1576   1.414       .  A
C1571      C1580   1.412   1_455  A
C1576      C1577   1.413       .  A
C1576      F1581   1.357       .  S
C1577      C1578   1.408       .  A
C1577      H1582   1.081       .  S
C1578      C1579   1.411   1_455  A
C1579      C1580   1.412       .  A
C1579      F1583   1.357       .  S
C1580      H1584   1.080       .  S
C1585      C1586   1.408       .  A
C1585      C1590   1.405       .  A
C1585      H1595   1.082       .  S
C1586      C1591   1.511       .  S
C1586      C1587   1.414       .  A
C1587      C1588   1.412       .  A
C1587      F1592   1.357       .  S
C1588      C1589   1.409       .  A
C1588      H1593   1.083       .  S
C1589      C1590   1.413       .  A
C1590      F1594   1.357       .  S
C1591      C1596   1.414       .  A
C1591      C1600   1.409       .  A
C1596      C1597   1.408       .  A
C1596      F1601   1.357       .  S
C1597      C1598   1.409       .  A
C1597      H1602   1.083       .  S
C1598      C1599   1.412       .  A
C1599      C1600   1.407       .  A
C1599      F1603   1.357       .  S
C1600      H1604   1.082       .  S
C1605      C1606   1.410       .  A
C1605      C1610   1.413       .  A
C1605      H1615   1.083       .  S
C1606      C1611   1.516   1_554  S
C1606      C1607   1.412       .  A
C1607      C1608   1.413       .  A
C1607      F1612   1.357       .  S
C1608      C1609   1.411       .  A
C1608      H1613   1.083       .  S
C1609      C1610   1.414       .  A
C1610      F1614   1.357       .  S
C1611      C1616   1.412       .  A
C1611      C1620   1.409       .  A
C1616      C1617   1.413       .  A
C1616      F1621   1.357       .  S
C1617      C1618   1.412       .  A
C1617      H1622   1.083       .  S
C1618      C1619   1.416       .  A
C1619      C1620   1.412       .  A
C1619      F1623   1.357       .  S
C1620      H1624   1.083       .  S
C1625      C1626   1.399       .  A
C1625      C1630   1.391       .  A
C1625      H1635   1.084       .  S
C1626      C1631   1.467       .  S
C1626      C1627   1.406       .  A
C1627      C1628   1.393       .  A
C1627      F1632   1.358       .  S
C1628      C1629   1.402       .  A
C1628      H1633   1.083       .  S
C1629      C1630   1.411       .  A
C1630      F1634   1.358       .  S
C1631      C1636   1.399       .  A
C1631      C1640   1.405       .  A
C1636      C1637   1.393       .  A
C1636      F1641   1.358       .  S
C1637      C1638   1.409       .  A
C1637      H1642   1.085       .  S
C1638      C1639   1.403       .  A
C1639      C1640   1.392       .  A
C1639      F1643   1.357       .  S
C1640      H1644   1.085       .  S
C1645      C1646   1.408       .  A
C1645      C1650   1.393       .  A
C1645      H1655   1.084       .  S
C1646      C1651   1.477       .  S
C1646      C1647   1.403       .  A
C1647      C1648   1.393       .  A
C1647      F1652   1.358       .  S
C1648      C1649   1.408       .  A
C1648      H1653   1.084       .  S
C1649      C1650   1.405       .  A
C1650      F1654   1.357       .  S
C1651      C1656   1.404       .  A
C1651      C1660   1.409       .  A
C1656      C1657   1.393       .  A
C1656      F1661   1.358       .  S
C1657      C1658   1.406       .  A
C1657      H1662   1.085       .  S
C1658      C1659   1.399       .  A
C1659      C1660   1.392       .  A
C1659      F1663   1.357       .  S
C1660      H1664   1.084       .  S
C1665      C1666   1.407       .  A
C1665      C1670   1.402       .  A
C1665      H1675   1.083       .  S
C1666      C1671   1.482       .  S
C1666      C1667   1.407       .  A
C1667      C1668   1.394       .  A
C1667      F1672   1.358       .  S
C1668      C1669   1.400       .  A
C1668      H1673   1.083       .  S
C1669      C1670   1.405       .  A
C1670      F1674   1.357       .  S
C1671      C1676   1.406       .  A
C1671      C1680   1.403       .  A
C1676      C1677   1.403       .  A
C1676      F1681   1.357       .  S
C1677      C1678   1.409       .  A
C1677      H1682   1.082       .  S
C1678      C1679   1.408       .  A
C1679      C1680   1.391       .  A
C1679      F1683   1.358       .  S
C1680      H1684   1.083       .  S
C1685      C1686   1.398       .  A
C1685      C1690   1.395       .  A
C1685      H1695   1.083       .  S
C1686      C1691   1.463       .  S
C1686      C1687   1.403       .  A
C1687      C1688   1.393       .  A
C1687      F1692   1.358       .  S
C1688      C1689   1.404       .  A
C1688      H1693   1.083       .  S
C1689      C1690   1.412       .  A
C1690      F1694   1.358       .  S
C1691      C1696   1.402       .  A
C1691      C1700   1.399       .  A
C1696      C1697   1.390       .  A
C1696      F1701   1.358       .  S
C1697      C1698   1.403       .  A
C1697      H1702   1.083       .  S
C1698      C1699   1.412       .  A
C1699      C1700   1.399       .  A
C1699      F1703   1.357       .  S
C1700      H1704   1.083       .  S
C1705      C1706   1.396       .  A
C1705      C1710   1.388       .  A
C1705      H1715   1.082       .  S
C1706      C1711   1.459       .  S
C1706      C1707   1.406       .  A
C1707      C1708   1.394       .  A
C1707      F1712   1.358       .  S
C1708      C1709   1.401       .  A
C1708      H1713   1.082       .  S
C1709      C1710   1.411       .  A
C1710      F1714   1.358       .  S
C1711      C1716   1.398       .  A
C1711      C1720   1.404       .  A
C1716      C1717   1.393       .  A
C1716      F1721   1.357       .  S
C1717      C1718   1.408       .  A
C1717      H1722   1.084       .  S
C1718      C1719   1.400       .  A
C1719      C1720   1.388       .  A
C1719      F1723   1.358       .  S
C1720      H1724   1.085       .  S
C1725      C1726   1.405       .  A
C1725      C1730   1.399       .  A
C1725      H1735   1.084       .  S
C1726      C1731   1.475       .  S
C1726      C1727   1.404       .  A
C1727      C1728   1.388       .  A
C1727      F1732   1.358       .  S
C1728      C1729   1.403       .  A
C1728      H1733   1.084       .  S
C1729      C1730   1.407       .  A
C1730      F1734   1.357       .  S
C1731      C1736   1.405       .  A
C1731      C1740   1.402       .  A
C1736      C1737   1.397       .  A
C1736      F1741   1.357       .  S
C1737      C1738   1.405       .  A
C1737      H1742   1.085       .  S
C1738      C1739   1.409       .  A
C1739      C1740   1.392       .  A
C1739      F1743   1.358       .  S
C1740      H1744   1.086       .  S
C1745      C1746   1.409       .  A
C1745      C1750   1.414       .  A
C1745      H1755   1.083       .  S
C1746      C1751   1.514       .  S
C1746      C1747   1.411   1_554  A
C1747      C1748   1.413       .  A
C1747      F1752   1.357       .  S
C1748      C1749   1.411   1_556  A
C1748      H1753   1.083       .  S
C1749      C1750   1.415       .  A
C1750      F1754   1.357       .  S
C1751      C1756   1.411       .  A
C1751      C1760   1.408   1_554  A
C1756      C1757   1.414       .  A
C1756      F1761   1.357       .  S
C1757      C1758   1.414   1_554  A
C1757      H1762   1.083       .  S
C1758      C1759   1.415       .  A
C1759      C1760   1.413       .  A
C1759      F1763   1.356       .  S
C1760      H1764   1.083       .  S
C1765      C1766   1.403       .  A
C1765      C1770   1.391       .  A
C1765      H1775   1.085       .  S
C1766      C1771   1.476       .  S
C1766      C1767   1.406       .  A
C1767      C1768   1.400       .  A
C1767      F1772   1.357       .  S
C1768      C1769   1.403       .  A
C1768      H1773   1.085       .  S
C1769      C1770   1.405       .  A
C1770      F1774   1.358       .  S
C1771      C1776   1.403       .  A
C1771      C1780   1.403       .  A
C1776      C1777   1.389       .  A
C1776      F1781   1.358       .  S
C1777      C1778   1.406       .  A
C1777      H1782   1.084       .  S
C1778      C1779   1.412       .  A
C1779      C1780   1.402       .  A
C1779      F1783   1.357       .  S
C1780      H1784   1.085       .  S
C1785      C1786   1.404       .  A
C1785      C1790   1.401       .  A
C1785      H1795   1.084       .  S
C1786      C1791   1.480       .  S
C1786      C1787   1.405       .  A
C1787      C1788   1.394       .  A
C1787      F1792   1.358       .  S
C1788      C1789   1.406       .  A
C1788      H1793   1.084       .  S
C1789      C1790   1.410       .  A
C1790      F1794   1.357       .  S
C1791      C1796   1.406       .  A
C1791      C1800   1.403       .  A
C1796      C1797   1.399       .  A
C1796      F1801   1.357       .  S
C1797      C1798   1.405       .  A
C1797      H1802   1.084       .  S
C1798      C1799   1.411       .  A
C1799      C1800   1.398       .  A
C1799      F1803   1.358       .  S
C1800      H1804   1.084       .  S
C1805      C1806   1.412       .  A
C1805      C1810   1.412       .  A
C1805      H1815   1.083       .  S
C1806      C1811   1.527   1_554  S
C1806      C1807   1.418       .  A
C1807      C1808   1.416       .  A
C1807      F1812   1.357       .  S
C1808      C1809   1.410       .  A
C1808      H1813   1.084       .  S
C1809      C1810   1.413       .  A
C1810      F1814   1.357       .  S
C1811      C1816   1.416       .  A
C1811      C1820   1.413       .  A
C1816      C1817   1.412       .  A
C1816      F1821   1.357       .  S
C1817      C1818   1.411       .  A
C1817      H1822   1.085       .  S
C1818      C1819   1.415       .  A
C1819      C1820   1.414       .  A
C1819      F1823   1.357       .  S
C1820      H1824   1.084       .  S
C1825      C1826   1.403       .  A
C1825      C1830   1.394       .  A
C1825      H1835   1.085       .  S
C1826      C1831   1.474       .  S
C1826      C1827   1.411       .  A
C1827      C1828   1.389       .  A
C1827      F1832   1.358       .  S
C1828      C1829   1.398       .  A
C1828      H1833   1.085       .  S
C1829      C1830   1.406       .  A
C1830      F1834   1.358       .  S
C1831      C1836   1.409       .  A
C1831      C1840   1.403       .  A
C1836      C1837   1.391       .  A
C1836      F1841   1.358       .  S
C1837      C1838   1.401       .  A
C1837      H1842   1.087       .  S
C1838      C1839   1.405       .  A
C1839      C1840   1.393       .  A
C1839      F1843   1.357       .  S
C1840      H1844   1.087       .  S
C1845      C1846   1.406       .  A
C1845      C1850   1.394       .  A
C1845      H1855   1.084       .  S
C1846      C1851   1.473       .  S
C1846      C1847   1.403       .  A
C1847      C1848   1.392       .  A
C1847      F1852   1.358       .  S
C1848      C1849   1.405       .  A
C1848      H1853   1.084       .  S
C1849      C1850   1.402       .  A
C1850      F1854   1.357       .  S
C1851      C1856   1.402       .  A
C1851      C1860   1.404       .  A
C1856      C1857   1.394       .  A
C1856      F1861   1.358       .  S
C1857      C1858   1.409       .  A
C1857      H1862   1.084       .  S
C1858      C1859   1.407       .  A
C1859      C1860   1.393       .  A
C1859      F1863   1.357       .  S
C1860      H1864   1.084       .  S
C1865      C1866   1.407       .  A
C1865      C1870   1.410       .  A
C1865      H1875   1.083       .  S
C1866      C1871   1.501       .  S
C1866      C1867   1.409   1_556  A
C1867      C1868   1.401       .  A
C1867      F1872   1.357       .  S
C1868      C1869   1.407   1_554  A
C1868      H1873   1.083       .  S
C1869      C1870   1.415       .  A
C1870      F1874   1.357       .  S
C1871      C1876   1.413       .  A
C1871      C1880   1.403   1_556  A
C1876      C1877   1.415       .  A
C1876      F1881   1.357       .  S
C1877      C1878   1.410   1_556  A
C1877      H1882   1.082       .  S
C1878      C1879   1.413       .  A
C1879      C1880   1.396       .  A
C1879      F1883   1.358       .  S
C1880      H1884   1.083       .  S
C1885      C1886   1.397       .  A
C1885      C1890   1.390       .  A
C1885      H1895   1.083       .  S
C1886      C1891   1.460       .  S
C1886      C1887   1.406       .  A
C1887      C1888   1.395       .  A
C1887      F1892   1.358       .  S
C1888      C1889   1.401       .  A
C1888      H1893   1.083       .  S
C1889      C1890   1.407       .  A
C1890      F1894   1.358       .  S
C1891      C1896   1.405       .  A
C1891      C1900   1.398       .  A
C1896      C1897   1.386       .  A
C1896      F1901   1.358       .  S
C1897      C1898   1.399       .  A
C1897      H1902   1.084       .  S
C1898      C1899   1.410       .  A
C1899      C1900   1.396       .  A
C1899      F1903   1.358       .  S
C1900      H1904   1.083       .  S
C1905      C1906   1.399       .  A
C1905      C1910   1.387       .  A
C1905      H1915   1.085       .  S
C1906      C1911   1.451       .  S
C1906      C1907   1.394       .  A
C1907      C1908   1.391       .  A
C1907      F1912   1.357       .  S
C1908      C1909   1.410       .  A
C1908      H1913   1.084       .  S
C1909      C1910   1.406       .  A
C1910      F1914   1.358       .  S
C1911      C1916   1.402       .  A
C1911      C1920   1.393       .  A
C1916      C1917   1.392       .  A
C1916      F1921   1.358       .  S
C1917      C1918   1.402       .  A
C1917      H1922   1.084       .  S
C1918      C1919   1.412       .  A
C1919      C1920   1.386       .  A
C1919      F1923   1.358       .  S
C1920      H1924   1.085       .  S
C1925      C1926   1.409   1_556  A
C1925      C1930   1.410       .  A
C1925      H1935   1.083       .  S
C1926      C1931   1.512       .  S
C1926      C1927   1.412       .  A
C1927      C1928   1.411       .  A
C1927      F1932   1.357       .  S
C1928      C1929   1.410       .  A
C1928      H1933   1.083       .  S
C1929      C1930   1.411   1_554  A
C1930      F1934   1.357       .  S
C1931      C1936   1.411   1_554  A
C1931      C1940   1.408       .  A
C1936      C1937   1.411       .  A
C1936      F1941   1.357       .  S
C1937      C1938   1.411   1_556  A
C1937      H1942   1.083       .  S
C1938      C1939   1.416       .  A
C1939      C1940   1.410       .  A
C1939      F1943   1.357       .  S
C1940      H1944   1.083       .  S
C1945      C1946   1.403       .  A
C1945      C1950   1.401       .  A
C1945      H1955   1.084       .  S
C1946      C1951   1.472       .  S
C1946      C1947   1.401       .  A
C1947      C1948   1.389       .  A
C1947      F1952   1.358       .  S
C1948      C1949   1.406       .  A
C1948      H1953   1.084       .  S
C1949      C1950   1.410       .  A
C1950      F1954   1.357       .  S
C1951      C1956   1.404       .  A
C1951      C1960   1.400       .  A
C1956      C1957   1.392       .  A
C1956      F1961   1.358       .  S
C1957      C1958   1.405       .  A
C1957      H1962   1.083       .  S
C1958      C1959   1.412       .  A
C1959      C1960   1.397       .  A
C1959      F1963   1.357       .  S
C1960      H1964   1.083       .  S
C1965      C1966   1.406       .  A
C1965      C1970   1.408       .  A
C1965      H1975   1.084       .  S
C1966      C1971   1.483       .  S
C1966      C1967   1.402       .  A
C1967      C1968   1.391       .  A
C1967      F1972   1.358       .  S
C1968      C1969   1.408       .  A
C1968      H1973   1.084       .  S
C1969      C1970   1.411       .  A
C1970      F1974   1.357       .  S
C1971      C1976   1.406       .  A
C1971      C1980   1.403       .  A
C1976      C1977   1.406       .  A
C1976      F1981   1.357       .  S
C1977      C1978   1.408       .  A
C1977      H1982   1.083       .  S
C1978      C1979   1.406       .  A
C1979      C1980   1.394       .  A
C1979      F1983   1.358       .  S
C1980      H1984   1.084       .  S
C1985      C1986   1.412       .  A
C1985      C1990   1.417       .  A
C1985      H1995   1.083       .  S
C1986      C1991   1.507       .  S
C1986      C1987   1.406       .  A
C1987      C1988   1.402       .  A
C1987      F1992   1.358       .  S
C1988      C1989   1.414       .  A
C1988      H1993   1.083       .  S
C1989      C1990   1.413       .  A
C1990      F1994   1.356       .  S
C1991      C1996   1.412       .  A
C1991      C2000   1.409       .  A
C1996      C1997   1.407       .  A
C1996      F2001   1.357       .  S
C1997      C1998   1.405       .  A
C1997      H2002   1.083       .  S
C1998      C1999   1.408       .  A
C1999      C2000   1.411       .  A
C1999      F2003   1.357       .  S
C2000      H2004   1.083       .  S
C2005      C2006   1.413       .  A
C2005      C2010   1.419       .  A
C2005      H2015   1.084       .  S
C2006      C2011   1.526   1_565  S
C2006      C2007   1.413       .  A
C2007      C2008   1.414       .  A
C2007      F2012   1.357       .  S
C2008      C2009   1.413       .  A
C2008      H2013   1.084       .  S
C2009      C2010   1.416       .  A
C2010      F2014   1.357       .  S
C2011      C2016   1.413       .  A
C2011      C2020   1.412       .  A
C2016      C2017   1.416       .  A
C2016      F2021   1.357       .  S
C2017      C2018   1.414       .  A
C2017      H2022   1.084       .  S
C2018      C2019   1.415       .  A
C2019      C2020   1.416       .  A
C2019      F2023   1.357       .  S
C2020      H2024   1.084       .  S
C2025      C2026   1.405       .  A
C2025      C2030   1.395       .  A
C2025      H2035   1.084       .  S
C2026      C2031   1.474       .  S
C2026      C2027   1.409       .  A
C2027      C2028   1.388       .  A
C2027      F2032   1.358       .  S
C2028      C2029   1.400       .  A
C2028      H2033   1.085       .  S
C2029      C2030   1.404       .  A
C2030      F2034   1.358       .  S
C2031      C2036   1.404       .  A
C2031      C2040   1.405       .  A
C2036      C2037   1.394       .  A
C2036      F2041   1.358       .  S
C2037      C2038   1.406       .  A
C2037      H2042   1.083       .  S
C2038      C2039   1.406       .  A
C2039      C2040   1.391       .  A
C2039      F2043   1.358       .  S
C2040      H2044   1.083       .  S
C2045      C2046   1.400       .  A
C2045      C2050   1.389       .  A
C2045      H2055   1.083       .  S
C2046      C2051   1.467       .  S
C2046      C2047   1.409       .  A
C2047      C2048   1.393       .  A
C2047      F2052   1.358       .  S
C2048      C2049   1.400       .  A
C2048      H2053   1.083       .  S
C2049      C2050   1.407       .  A
C2050      F2054   1.358       .  S
C2051      C2056   1.402       .  A
C2051      C2060   1.407       .  A
C2056      C2057   1.391       .  A
C2056      F2061   1.357       .  S
C2057      C2058   1.404       .  A
C2057      H2062   1.085       .  S
C2058      C2059   1.397       .  A
C2059      C2060   1.389       .  A
C2059      F2063   1.358       .  S
C2060      H2064   1.085       .  S
C2065      C2066   1.400       .  A
C2065      C2070   1.388       .  A
C2065      H2075   1.085       .  S
C2066      C2071   1.474       .  S
C2066      C2067   1.404       .  A
C2067      C2068   1.402       .  A
C2067      F2072   1.357       .  S
C2068      C2069   1.410       .  A
C2068      H2073   1.084       .  S
C2069      C2070   1.410       .  A
C2070      F2074   1.358       .  S
C2071      C2076   1.406       .  A
C2071      C2080   1.402       .  A
C2076      C2077   1.402       .  A
C2076      F2081   1.357       .  S
C2077      C2078   1.405       .  A
C2077      H2082   1.084       .  S
C2078      C2079   1.403       .  A
C2079      C2080   1.390       .  A
C2079      F2083   1.358       .  S
C2080      H2084   1.084       .  S
C2085      C2086   1.411   1_565  A
C2085      C2090   1.409       .  A
C2085      H2095   1.083       .  S
C2086      C2091   1.507       .  S
C2086      C2087   1.412       .  A
C2087      C2088   1.407       .  A
C2087      F2092   1.357       .  S
C2088      C2089   1.407       .  A
C2088      H2093   1.084       .  S
C2089      C2090   1.405   1_545  A
C2090      F2094   1.357       .  S
C2091      C2096   1.412       .  A
C2091      C2100   1.408   1_545  A
C2096      C2097   1.410       .  A
C2096      F2101   1.357       .  S
C2097      C2098   1.410   1_545  A
C2097      H2102   1.083       .  S
C2098      C2099   1.412       .  A
C2099      C2100   1.406       .  A
C2099      F2103   1.357       .  S
C2100      H2104   1.083       .  S
C2105      C2106   1.402       .  A
C2105      C2110   1.387       .  A
C2105      H2115   1.082       .  S
C2106      C2111   1.467       .  S
C2106      C2107   1.407       .  A
C2107      C2108   1.393       .  A
C2107      F2112   1.358       .  S
C2108      C2109   1.402       .  A
C2108      H2113   1.082       .  S
C2109      C2110   1.403       .  A
C2110      F2114   1.358       .  S
C2111      C2116   1.403       .  A
C2111      C2120   1.403       .  A
C2116      C2117   1.393       .  A
C2116      F2121   1.358       .  S
C2117      C2118   1.407       .  A
C2117      H2122   1.083       .  S
C2118      C2119   1.407       .  A
C2119      C2120   1.386       .  A
C2119      F2123   1.358       .  S
C2120      H2124   1.083       .  S
C2125      C2126   1.401       .  A
C2125      C2130   1.389       .  A
C2125      H2135   1.083       .  S
C2126      C2131   1.456       .  S
C2126      C2127   1.398       .  A
C2127      C2128   1.390       .  A
C2127      F2132   1.358       .  S
C2128      C2129   1.408       .  A
C2128      H2133   1.082       .  S
C2129      C2130   1.405       .  A
C2130      F2134   1.358       .  S
C2131      C2136   1.400       .  A
C2131      C2140   1.402       .  A
C2136      C2137   1.391       .  A
C2136      F2141   1.358       .  S
C2137      C2138   1.404       .  A
C2137      H2142   1.083       .  S
C2138      C2139   1.401       .  A
C2139      C2140   1.388       .  A
C2139      F2143   1.358       .  S
C2140      H2144   1.084       .  S
C2145      C2146   1.402       .  A
C2145      C2150   1.393       .  A
C2145      H2155   1.084       .  S
C2146      C2151   1.468       .  S
C2146      C2147   1.404       .  A
C2147      C2148   1.394       .  A
C2147      F2152   1.358       .  S
C2148      C2149   1.404       .  A
C2148      H2153   1.084       .  S
C2149      C2150   1.404       .  A
C2150      F2154   1.358       .  S
C2151      C2156   1.402       .  A
C2151      C2160   1.400       .  A
C2156      C2157   1.396       .  A
C2156      F2161   1.357       .  S
C2157      C2158   1.407       .  A
C2157      H2162   1.083       .  S
C2158      C2159   1.410       .  A
C2159      C2160   1.391       .  A
C2159      F2163   1.358       .  S
C2160      H2164   1.084       .  S
C2165      C2166   1.405       .  A
C2165      C2170   1.407       .  A
C2165      H2175   1.083       .  S
C2166      C2171   1.511       .  S
C2166      C2167   1.413       .  A
C2167      C2168   1.415       .  A
C2167      F2172   1.357   1_565  S
C2168      C2169   1.412       .  A
C2168      H2173   1.082   1_565  S
C2169      C2170   1.417       .  A
C2170      F2174   1.357       .  S
C2171      C2176   1.411       .  A
C2171      C2180   1.409   1_565  A
C2176      C2177   1.409       .  A
C2176      F2181   1.357       .  S
C2177      C2178   1.411       .  A
C2177      H2182   1.083       .  S
C2178      C2179   1.413   1_565  A
C2179      C2180   1.411       .  A
C2179      F2183   1.357       .  S
C2180      H2184   1.083       .  S
C2185      C2186   1.402       .  A
C2185      C2190   1.397       .  A
C2185      H2195   1.087       .  S
C2186      C2191   1.473       .  S
C2186      C2187   1.405       .  A
C2187      C2188   1.392       .  A
C2187      F2192   1.358       .  S
C2188      C2189   1.403       .  A
C2188      H2193   1.087       .  S
C2189      C2190   1.409       .  A
C2190      F2194   1.357       .  S
C2191      C2196   1.405       .  A
C2191      C2200   1.401       .  A
C2196      C2197   1.395       .  A
C2196      F2201   1.357       .  S
C2197      C2198   1.405       .  A
C2197      H2202   1.089       .  S
C2198      C2199   1.408       .  A
C2199      C2200   1.393       .  A
C2199      F2203   1.358       .  S
C2200      H2204   1.089       .  S
C2205      C2206   1.402       .  A
C2205      C2210   1.396       .  A
C2205      H2215   1.082       .  S
C2206      C2211   1.485       .  S
C2206      C2207   1.406       .  A
C2207      C2208   1.404       .  A
C2207      F2212   1.357       .  S
C2208      C2209   1.410       .  A
C2208      H2213   1.082       .  S
C2209      C2210   1.411       .  A
C2210      F2214   1.357       .  S
C2211      C2216   1.405       .  A
C2211      C2220   1.404       .  A
C2216      C2217   1.396       .  A
C2216      F2221   1.358       .  S
C2217      C2218   1.407       .  A
C2217      H2222   1.082       .  S
C2218      C2219   1.414       .  A
C2219      C2220   1.405       .  A
C2219      F2223   1.357       .  S
C2220      H2224   1.082       .  S
C2225      C2226   1.408       .  A
C2225      C2230   1.407       .  A
C2225      H2235   1.082       .  S
C2226      C2231   1.510       .  S
C2226      C2227   1.413       .  A
C2227      C2228   1.408       .  A
C2227      F2232   1.357       .  S
C2228      C2229   1.408       .  A
C2228      H2233   1.083       .  S
C2229      C2230   1.413       .  A
C2230      F2234   1.357       .  S
C2231      C2236   1.414       .  A
C2231      C2240   1.408       .  A
C2236      C2237   1.411       .  A
C2236      F2241   1.357       .  S
C2237      C2238   1.409       .  A
C2237      H2242   1.083       .  S
C2238      C2239   1.412       .  A
C2239      C2240   1.405       .  A
C2239      F2243   1.357       .  S
C2240      H2244   1.082       .  S
C2245      C2246   1.417       .  A
C2245      C2250   1.420       .  A
C2245      H2255   1.084       .  S
C2246      C2251   1.536   1_545  S
C2246      C2247   1.417       .  A
C2247      C2248   1.414       .  A
C2247      F2252   1.357       .  S
C2248      C2249   1.412       .  A
C2248      H2253   1.085       .  S
C2249      C2250   1.414       .  A
C2250      F2254   1.357       .  S
C2251      C2256   1.419       .  A
C2251      C2260   1.414       .  A
C2256      C2257   1.419       .  A
C2256      F2261   1.357       .  S
C2257      C2258   1.413       .  A
C2257      H2262   1.085       .  S
C2258      C2259   1.416       .  A
C2259      C2260   1.415       .  A
C2259      F2263   1.357       .  S
C2260      H2264   1.084       .  S
C2265      C2266   1.395       .  A
C2265      C2270   1.393       .  A
C2265      H2275   1.083       .  S
C2266      C2271   1.456       .  S
C2266      C2267   1.402       .  A
C2267      C2268   1.389       .  A
C2267      F2272   1.358       .  S
C2268      C2269   1.403       .  A
C2268      H2273   1.083       .  S
C2269      C2270   1.412       .  A
C2270      F2274   1.357       .  S
C2271      C2276   1.401       .  A
C2271      C2280   1.396       .  A
C2276      C2277   1.389       .  A
C2276      F2281   1.358       .  S
C2277      C2278   1.403       .  A
C2277      H2282   1.083       .  S
C2278      C2279   1.412       .  A
C2279      C2280   1.393       .  A
C2279      F2283   1.358       .  S
C2280      H2284   1.083       .  S
C2285      C2286   1.397       .  A
C2285      C2290   1.392       .  A
C2285      H2295   1.083       .  S
C2286      C2291   1.458       .  S
C2286      C2287   1.404       .  A
C2287      C2288   1.389       .  A
C2287      F2292   1.358       .  S
C2288      C2289   1.399       .  A
C2288      H2293   1.083       .  S
C2289      C2290   1.410       .  A
C2290      F2294   1.358       .  S
C2291      C2296   1.397       .  A
C2291      C2300   1.403       .  A
C2296      C2297   1.390       .  A
C2296      F2301   1.358       .  S
C2297      C2298   1.409       .  A
C2297      H2302   1.083       .  S
C2298      C2299   1.403       .  A
C2299      C2300   1.391       .  A
C2299      F2303   1.358       .  S
C2300      H2304   1.084       .  S
C2305      C2306   1.405       .  A
C2305      C2310   1.395       .  A
C2305      H2315   1.083       .  S
C2306      C2311   1.486       .  S
C2306      C2307   1.411       .  A
C2307      C2308   1.403       .  A
C2307      F2312   1.358       .  S
C2308      C2309   1.402       .  A
C2308      H2313   1.083       .  S
C2309      C2310   1.401       .  A
C2310      F2314   1.358       .  S
C2311      C2316   1.406       .  A
C2311      C2320   1.406       .  A
C2316      C2317   1.397       .  A
C2316      F2321   1.357       .  S
C2317      C2318   1.408       .  A
C2317      H2322   1.082       .  S
C2318      C2319   1.410       .  A
C2319      C2320   1.400       .  A
C2319      F2323   1.357       .  S
C2320      H2324   1.082       .  S
C2325      C2326   1.408   1_565  A
C2325      C2330   1.405       .  A
C2325      H2335   1.084       .  S
C2326      C2331   1.508       .  S
C2326      C2327   1.412       .  A
C2327      C2328   1.409       .  A
C2327      F2332   1.357       .  S
C2328      C2329   1.409   1_545  A
C2328      H2333   1.084       .  S
C2329      C2330   1.413       .  A
C2330      F2334   1.357       .  S
C2331      C2336   1.411   1_545  A
C2331      C2340   1.408       .  A
C2336      C2337   1.407       .  A
C2336      F2341   1.357       .  S
C2337      C2338   1.409   1_565  A
C2337      H2342   1.084       .  S
C2338      C2339   1.415       .  A
C2339      C2340   1.408       .  A
C2339      F2343   1.357       .  S
C2340      H2344   1.084       .  S
C2345      C2346   1.400       .  A
C2345      C2350   1.391       .  A
C2345      H2355   1.084       .  S
C2346      C2351   1.468       .  S
C2346      C2347   1.407       .  A
C2347      C2348   1.394       .  A
C2347      F2352   1.357       .  S
C2348      C2349   1.401       .  A
C2348      H2353   1.084       .  S
C2349      C2350   1.410       .  A
C2350      F2354   1.358       .  S
C2351      C2356   1.401       .  A
C2351      C2360   1.404       .  A
C2356      C2357   1.395       .  A
C2356      F2361   1.357       .  S
C2357      C2358   1.408       .  A
C2357      H2362   1.086       .  S
C2358      C2359   1.403       .  A
C2359      C2360   1.389       .  A
C2359      F2363   1.358       .  S
C2360      H2364   1.087       .  S
C2365      C2366   1.406       .  A
C2365      C2370   1.393       .  A
C2365      H2375   1.085       .  S
C2366      C2371   1.464       .  S
C2366      C2367   1.399       .  A
C2367      C2368   1.388       .  A
C2367      F2372   1.358       .  S
C2368      C2369   1.408       .  A
C2368      H2373   1.085       .  S
C2369      C2370   1.403       .  A
C2370      F2374   1.357       .  S
C2371      C2376   1.400       .  A
C2371      C2380   1.406       .  A
C2376      C2377   1.389       .  A
C2376      F2381   1.358       .  S
C2377      C2378   1.406       .  A
C2377      H2382   1.084       .  S
C2378      C2379   1.400       .  A
C2379      C2380   1.390       .  A
C2379      F2383   1.358       .  S
C2380      H2384   1.085       .  S
C2385      C2386   1.404       .  A
C2385      C2390   1.403       .  A
C2385      H2395   1.083       .  S
C2386      C2391   1.474       .  S
C2386      C2387   1.402       .  A
C2387      C2388   1.390       .  A
C2387      F2392   1.358       .  S
C2388      C2389   1.406       .  A
C2388      H2393   1.083       .  S
C2389      C2390   1.410       .  A
C2390      F2394   1.357       .  S
C2391      C2396   1.404       .  A
C2391      C2400   1.402       .  A
C2396      C2397   1.394       .  A
C2396      F2401   1.358       .  S
C2397      C2398   1.404       .  A
C2397      H2402   1.084       .  S
C2398      C2399   1.408       .  A
C2399      C2400   1.400       .  A
C2399      F2403   1.357       .  S
C2400      H2404   1.084       .  S
C2405      C2406   1.410       .  A
C2405      C2410   1.414       .  A
C2405      H2415   1.084       .  S
C2406      C2411   1.518       .  S
C2406      C2407   1.412   1_545  A
C2407      C2408   1.415       .  A
C2407      F2412   1.357       .  S
C2408      C2409   1.413   1_565  A
C2408      H2413   1.084       .  S
C2409      C2410   1.415       .  A
C2410      F2414   1.357       .  S
C2411      C2416   1.411       .  A
C2411      C2420   1.409   1_545  A
C2416      C2417   1.415       .  A
C2416      F2421   1.357       .  S
C2417      C2418   1.414       .  A
C2417      H2422   1.084       .  S
C2418      C2419   1.416   1_545  A
C2419      C2420   1.415       .  A
C2419      F2423   1.357       .  S
C2420      H2424   1.084       .  S
C2425      C2426   1.402       .  A
C2425      C2430   1.389       .  A
C2425      H2435   1.084       .  S
C2426      C2431   1.471       .  S
C2426      C2427   1.404       .  A
C2427      C2428   1.396       .  A
C2427      F2432   1.357       .  S
C2428      C2429   1.405       .  A
C2428      H2433   1.084       .  S
C2429      C2430   1.406       .  A
C2430      F2434   1.358       .  S
C2431      C2436   1.404       .  A
C2431      C2440   1.403       .  A
C2436      C2437   1.394       .  A
C2436      F2441   1.357       .  S
C2437      C2438   1.405       .  A
C2437      H2442   1.083       .  S
C2438      C2439   1.406       .  A
C2439      C2440   1.392       .  A
C2439      F2443   1.358       .  S
C2440      H2444   1.084       .  S
C2445      C2446   1.412       .  A
C2445      C2450   1.409       .  A
C2445      H2455   1.084       .  S
C2446      C2451   1.515       .  S
C2446      C2447   1.415       .  A
C2447      C2448   1.405       .  A
C2447      F2452   1.357       .  S
C2448      C2449   1.406       .  A
C2448      H2453   1.086       .  S
C2449      C2450   1.410       .  A
C2450      F2454   1.357       .  S
C2451      C2456   1.415       .  A
C2451      C2460   1.410       .  A
C2456      C2457   1.409       .  A
C2456      F2461   1.357       .  S
C2457      C2458   1.409       .  A
C2457      H2462   1.085       .  S
C2458      C2459   1.412       .  A
C2459      C2460   1.406       .  A
C2459      F2463   1.357       .  S
C2460      H2464   1.085       .  S
C2465      C2466   1.402       .  A
C2465      C2470   1.393       .  A
C2465      H2475   1.084       .  S
C2466      C2471   1.479       .  S
C2466      C2467   1.407       .  A
C2467      C2468   1.400       .  A
C2467      F2472   1.357       .  S
C2468      C2469   1.406       .  A
C2468      H2473   1.083       .  S
C2469      C2470   1.408       .  A
C2470      F2474   1.358       .  S
C2471      C2476   1.405       .  A
C2471      C2480   1.404       .  A
C2476      C2477   1.399       .  A
C2476      F2481   1.357       .  S
C2477      C2478   1.406       .  A
C2477      H2482   1.084       .  S
C2478      C2479   1.407       .  A
C2479      C2480   1.394       .  A
C2479      F2483   1.358       .  S
C2480      H2484   1.084       .  S
C2485      C2486   1.410       .  A
C2485      C2490   1.408       .  A
C2485      H2495   1.084       .  S
C2486      C2491   1.515       .  S
C2486      C2487   1.412       .  A
C2487      C2488   1.412       .  A
C2487      F2492   1.357       .  S
C2488      C2489   1.412       .  A
C2488      H2493   1.084       .  S
C2489      C2490   1.413       .  A
C2490      F2494   1.357       .  S
C2491      C2496   1.409       .  A
C2491      C2500   1.414       .  A
C2496      C2497   1.404       .  A
C2496      F2501   1.358       .  S
C2497      C2498   1.411       .  A
C2497      H2502   1.083       .  S
C2498      C2499   1.413       .  A
C2499      C2500   1.418       .  A
C2499      F2503   1.357       .  S
C2500      H2504   1.083       .  S
C2505      C2506   1.408       .  A
C2505      C2510   1.408       .  A
C2505      H2515   1.083       .  S
C2506      C2511   1.518   1_455  S
C2506      C2507   1.415       .  A
C2507      C2508   1.415       .  A
C2507      F2512   1.357       .  S
C2508      C2509   1.411       .  A
C2508      H2513   1.083       .  S
C2509      C2510   1.415       .  A
C2510      F2514   1.357       .  S
C2511      C2516   1.414       .  A
C2511      C2520   1.411       .  A
C2516      C2517   1.410       .  A
C2516      F2521   1.357       .  S
C2517      C2518   1.409       .  A
C2517      H2522   1.084       .  S
C2518      C2519   1.412       .  A
C2519      C2520   1.412       .  A
C2519      F2523   1.357       .  S
C2520      H2524   1.083       .  S
C2525      C2526   1.401       .  A
C2525      C2530   1.392       .  A
C2525      H2535   1.083       .  S
C2526      C2531   1.457       .  S
C2526      C2527   1.397       .  A
C2527      C2528   1.392       .  A
C2527      F2532   1.357       .  S
C2528      C2529   1.408       .  A
C2528      H2533   1.082       .  S
C2529      C2530   1.406       .  A
C2530      F2534   1.358       .  S
C2531      C2536   1.402       .  A
C2531      C2540   1.397       .  A
C2536      C2537   1.389       .  A
C2536      F2541   1.358       .  S
C2537      C2538   1.402       .  A
C2537      H2542   1.083       .  S
C2538      C2539   1.412       .  A
C2539      C2540   1.393       .  A
C2539      F2543   1.358       .  S
C2540      H2544   1.083       .  S
C2545      C2546   1.403       .  A
C2545      C2550   1.392       .  A
C2545      H2555   1.083       .  S
C2546      C2551   1.458       .  S
C2546      C2547   1.397       .  A
C2547      C2548   1.390       .  A
C2547      F2552   1.357       .  S
C2548      C2549   1.407       .  A
C2548      H2553   1.083       .  S
C2549      C2550   1.404       .  A
C2550      F2554   1.358       .  S
C2551      C2556   1.398       .  A
C2551      C2560   1.403       .  A
C2556      C2557   1.393       .  A
C2556      F2561   1.357       .  S
C2557      C2558   1.407       .  A
C2557      H2562   1.083       .  S
C2558      C2559   1.402       .  A
C2559      C2560   1.389       .  A
C2559      F2563   1.358       .  S
C2560      H2564   1.083       .  S
C2565      C2566   1.406       .  A
C2565      C2570   1.401       .  A
C2565      H2575   1.084       .  S
C2566      C2571   1.487       .  S
C2566      C2567   1.408       .  A
C2567      C2568   1.395       .  A
C2567      F2572   1.357       .  S
C2568      C2569   1.404       .  A
C2568      H2573   1.084       .  S
C2569      C2570   1.409       .  A
C2570      F2574   1.357       .  S
C2571      C2576   1.408       .  A
C2571      C2580   1.405       .  A
C2576      C2577   1.399       .  A
C2576      F2581   1.357       .  S
C2577      C2578   1.404       .  A
C2577      H2582   1.084       .  S
C2578      C2579   1.409       .  A
C2579      C2580   1.398       .  A
C2579      F2583   1.358       .  S
C2580      H2584   1.084       .  S
C2585      C2586   1.402       .  A
C2585      C2590   1.395       .  A
C2585      H2595   1.084       .  S
C2586      C2591   1.480       .  S
C2586      C2587   1.406       .  A
C2587      C2588   1.402       .  A
C2587      F2592   1.357       .  S
C2588      C2589   1.406       .  A
C2588      H2593   1.084       .  S
C2589      C2590   1.408       .  A
C2590      F2594   1.358       .  S
C2591      C2596   1.405       .  A
C2591      C2600   1.403       .  A
C2596      C2597   1.399       .  A
C2596      F2601   1.357       .  S
C2597      C2598   1.407       .  A
C2597      H2602   1.083       .  S
C2598      C2599   1.409       .  A
C2599      C2600   1.396       .  A
C2599      F2603   1.358       .  S
C2600      H2604   1.084       .  S
C2605      C2606   1.406   1_655  A
C2605      C2610   1.407       .  A
C2605      H2615   1.084       .  S
C2606      C2611   1.502       .  S
C2606      C2607   1.410       .  A
C2607      C2608   1.407       .  A
C2607      F2612   1.357       .  S
C2608      C2609   1.409       .  A
C2608      H2613   1.084       .  S
C2609      C2610   1.414   1_455  A
C2610      F2614   1.357       .  S
C2611      C2616   1.408       .  A
C2611      C2620   1.410   1_455  A
C2616      C2617   1.403       .  A
C2616      F2621   1.357       .  S
C2617      C2618   1.408       .  A
C2617      H2622   1.085       .  S
C2618      C2619   1.410   1_455  A
C2619      C2620   1.410       .  A
C2619      F2623   1.357       .  S
C2620      H2624   1.085       .  S
C2625      C2626   1.404       .  A
C2625      C2630   1.393       .  A
C2625      H2635   1.085       .  S
C2626      C2631   1.466       .  S
C2626      C2627   1.402       .  A
C2627      C2628   1.390       .  A
C2627      F2632   1.358       .  S
C2628      C2629   1.405       .  A
C2628      H2633   1.084       .  S
C2629      C2630   1.403       .  A
C2630      F2634   1.357       .  S
C2631      C2636   1.402       .  A
C2631      C2640   1.405       .  A
C2636      C2637   1.394       .  A
C2636      F2641   1.358       .  S
C2637      C2638   1.405       .  A
C2637      H2642   1.086       .  S
C2638      C2639   1.400       .  A
C2639      C2640   1.389       .  A
C2639      F2643   1.358       .  S
C2640      H2644   1.087       .  S
C2645      C2646   1.397       .  A
C2645      C2650   1.391       .  A
C2645      H2655   1.083       .  S
C2646      C2651   1.457       .  S
C2646      C2647   1.404       .  A
C2647      C2648   1.389       .  A
C2647      F2652   1.358       .  S
C2648      C2649   1.400       .  A
C2648      H2653   1.083       .  S
C2649      C2650   1.410       .  A
C2650      F2654   1.358       .  S
C2651      C2656   1.397       .  A
C2651      C2660   1.401       .  A
C2656      C2657   1.390       .  A
C2656      F2661   1.357       .  S
C2657      C2658   1.408       .  A
C2657      H2662   1.084       .  S
C2658      C2659   1.407       .  A
C2659      C2660   1.390       .  A
C2659      F2663   1.358       .  S
C2660      H2664   1.086       .  S
C2665      C2666   1.404       .  A
C2665      C2670   1.404       .  A
C2665      H2675   1.083       .  S
C2666      C2671   1.484       .  S
C2666      C2667   1.407       .  A
C2667      C2668   1.397       .  A
C2667      F2672   1.358       .  S
C2668      C2669   1.405       .  A
C2668      H2673   1.083       .  S
C2669      C2670   1.409       .  A
C2670      F2674   1.357       .  S
C2671      C2676   1.402       .  A
C2671      C2680   1.408       .  A
C2676      C2677   1.391       .  A
C2676      F2681   1.358       .  S
C2677      C2678   1.407       .  A
C2677      H2682   1.083       .  S
C2678      C2679   1.409       .  A
C2679      C2680   1.409       .  A
C2679      F2683   1.357       .  S
C2680      H2684   1.083       .  S
C2685      C2686   1.399       .  A
C2685      C2690   1.390       .  A
C2685      H2695   1.084       .  S
C2686      C2691   1.474       .  S
C2686      C2687   1.405       .  A
C2687      C2688   1.400       .  A
C2687      F2692   1.357       .  S
C2688      C2689   1.406       .  A
C2688      H2693   1.083       .  S
C2689      C2690   1.411       .  A
C2690      F2694   1.358       .  S
C2691      C2696   1.406       .  A
C2691      C2700   1.404       .  A
C2696      C2697   1.394       .  A
C2696      F2701   1.358       .  S
C2697      C2698   1.403       .  A
C2697      H2702   1.084       .  S
C2698      C2699   1.403       .  A
C2699      C2700   1.397       .  A
C2699      F2703   1.357       .  S
C2700      H2704   1.084       .  S
C2705      C2706   1.410   1_455  A
C2705      C2710   1.414       .  A
C2705      H2715   1.084       .  S
C2706      C2711   1.513       .  S
C2706      C2707   1.410       .  A
C2707      C2708   1.412       .  A
C2707      F2712   1.357       .  S
C2708      C2709   1.411       .  A
C2708      H2713   1.084       .  S
C2709      C2710   1.414   1_655  A
C2710      F2714   1.357       .  S
C2711      C2716   1.410   1_655  A
C2711      C2720   1.408       .  A
C2716      C2717   1.413       .  A
C2716      F2721   1.357       .  S
C2717      C2718   1.412   1_455  A
C2717      H2722   1.084       .  S
C2718      C2719   1.417       .  A
C2719      C2720   1.413       .  A
C2719      F2723   1.357       .  S
C2720      H2724   1.084       .  S
C2725      C2726   1.402       .  A
C2725      C2730   1.392       .  A
C2725      H2735   1.085       .  S
C2726      C2731   1.484       .  S
C2726      C2727   1.406       .  A
C2727      C2728   1.406       .  A
C2727      F2732   1.357       .  S
C2728      C2729   1.410       .  A
C2728      H2733   1.084       .  S
C2729      C2730   1.411       .  A
C2730      F2734   1.358       .  S
C2731      C2736   1.404       .  A
C2731      C2740   1.407       .  A
C2736      C2737   1.392       .  A
C2736      F2741   1.358       .  S
C2737      C2738   1.404       .  A
C2737      H2742   1.084       .  S
C2738      C2739   1.409       .  A
C2739      C2740   1.408       .  A
C2739      F2743   1.357       .  S
C2740      H2744   1.083       .  S
C2745      C2746   1.406       .  A
C2745      C2750   1.403       .  A
C2745      H2755   1.083       .  S
C2746      C2751   1.482       .  S
C2746      C2747   1.405       .  A
C2747      C2748   1.393       .  A
C2747      F2752   1.358       .  S
C2748      C2749   1.404       .  A
C2748      H2753   1.083       .  S
C2749      C2750   1.407       .  A
C2750      F2754   1.357       .  S
C2751      C2756   1.406       .  A
C2751      C2760   1.403       .  A
C2756      C2757   1.394       .  A
C2756      F2761   1.358       .  S
C2757      C2758   1.405       .  A
C2757      H2762   1.083       .  S
C2758      C2759   1.412       .  A
C2759      C2760   1.401       .  A
C2759      F2763   1.357       .  S
C2760      H2764   1.083       .  S
C2765      C2766   1.407       .  A
C2765      C2770   1.408       .  A
C2765      H2775   1.083       .  S
C2766      C2771   1.505       .  S
C2766      C2767   1.411       .  A
C2767      C2768   1.408       .  A
C2767      F2772   1.357       .  S
C2768      C2769   1.410       .  A
C2768      H2773   1.083       .  S
C2769      C2770   1.414       .  A
C2770      F2774   1.357       .  S
C2771      C2776   1.414       .  A
C2771      C2780   1.405       .  A
C2776      C2777   1.415       .  A
C2776      F2781   1.357       .  S
C2777      C2778   1.409       .  A
C2777      H2782   1.082       .  S
C2778      C2779   1.411       .  A
C2779      C2780   1.403       .  A
C2779      F2783   1.357       .  S
C2780      H2784   1.082       .  S
C2785      C2786   1.413       .  A
C2785      C2790   1.413       .  A
C2785      H2795   1.083       .  S
C2786      C2791   1.523   1_554  S
C2786      C2787   1.415       .  A
C2787      C2788   1.412       .  A
C2787      F2792   1.357       .  S
C2788      C2789   1.411       .  A
C2788      H2793   1.084       .  S
C2789      C2790   1.414       .  A
C2790      F2794   1.357       .  S
C2791      C2796   1.415       .  A
C2791      C2800   1.414       .  A
C2796      C2797   1.409       .  A
C2796      F2801   1.357       .  S
C2797      C2798   1.409       .  A
C2797      H2802   1.084       .  S
C2798      C2799   1.411       .  A
C2799      C2800   1.414       .  A
C2799      F2803   1.357       .  S
C2800      H2804   1.083       .  S
C2805      C2806   1.399       .  A
C2805      C2810   1.394       .  A
C2805      H2815   1.084       .  S
C2806      C2811   1.466       .  S
C2806      C2807   1.407       .  A
C2807      C2808   1.390       .  A
C2807      F2812   1.358       .  S
C2808      C2809   1.402       .  A
C2808      H2813   1.085       .  S
C2809      C2810   1.410       .  A
C2810      F2814   1.357       .  S
C2811      C2816   1.400       .  A
C2811      C2820   1.404       .  A
C2816      C2817   1.390       .  A
C2816      F2821   1.358       .  S
C2817      C2818   1.408       .  A
C2817      H2822   1.085       .  S
C2818      C2819   1.405       .  A
C2819      C2820   1.393       .  A
C2819      F2823   1.357       .  S
C2820      H2824   1.086       .  S
C2825      C2826   1.398       .  A
C2825      C2830   1.391       .  A
C2825      H2835   1.083       .  S
C2826      C2831   1.466       .  S
C2826      C2827   1.406       .  A
C2827      C2828   1.394       .  A
C2827      F2832   1.358       .  S
C2828      C2829   1.403       .  A
C2828      H2833   1.083       .  S
C2829      C2830   1.412       .  A
C2830      F2834   1.358       .  S
C2831      C2836   1.405       .  A
C2831      C2840   1.400       .  A
C2836      C2837   1.388       .  A
C2836      F2841   1.358       .  S
C2837      C2838   1.400       .  A
C2837      H2842   1.083       .  S
C2838      C2839   1.410       .  A
C2839      C2840   1.396       .  A
C2839      F2843   1.358       .  S
C2840      H2844   1.083       .  S
C2845      C2846   1.406       .  A
C2845      C2850   1.403       .  A
C2845      H2855   1.083       .  S
C2846      C2851   1.486       .  S
C2846      C2847   1.408       .  A
C2847      C2848   1.395       .  A
C2847      F2852   1.358       .  S
C2848      C2849   1.403       .  A
C2848      H2853   1.083       .  S
C2849      C2850   1.409       .  A
C2850      F2854   1.357       .  S
C2851      C2856   1.407       .  A
C2851      C2860   1.405       .  A
C2856      C2857   1.400       .  A
C2856      F2861   1.357       .  S
C2857      C2858   1.407       .  A
C2857      H2862   1.083       .  S
C2858      C2859   1.409       .  A
C2859      C2860   1.397       .  A
C2859      F2863   1.358       .  S
C2860      H2864   1.083       .  S
C2865      C2866   1.410   1_556  A
C2865      C2870   1.407       .  A
C2865      H2875   1.084       .  S
C2866      C2871   1.512       .  S
C2866      C2867   1.413       .  A
C2867      C2868   1.409       .  A
C2867      F2872   1.357       .  S
C2868      C2869   1.410       .  A
C2868      H2873   1.084       .  S
C2869      C2870   1.412   1_554  A
C2870      F2874   1.357       .  S
C2871      C2876   1.412   1_554  A
C2871      C2880   1.411       .  A
C2876      C2877   1.404       .  A
C2876      F2881   1.357       .  S
C2877      C2878   1.408   1_556  A
C2877      H2882   1.084       .  S
C2878      C2879   1.411       .  A
C2879      C2880   1.410       .  A
C2879      F2883   1.357       .  S
C2880      H2884   1.083       .  S
C2885      C2886   1.406       .  A
C2885      C2890   1.398       .  A
C2885      H2895   1.081       .  S
C2886      C2891   1.462       .  S
C2886      C2887   1.397       .  A
C2887      C2888   1.390       .  A
C2887      F2892   1.358       .  S
C2888      C2889   1.408       .  A
C2888      H2893   1.082       .  S
C2889      C2890   1.402       .  A
C2890      F2894   1.357       .  S
C2891      C2896   1.398       .  A
C2891      C2900   1.402       .  A
C2896      C2897   1.396       .  A
C2896      F2901   1.357       .  S
C2897      C2898   1.410       .  A
C2897      H2902   1.080       .  S
C2898      C2899   1.403       .  A
C2899      C2900   1.390       .  A
C2899      F2903   1.358       .  S
C2900      H2904   1.081       .  S
C2905      C2906   1.403       .  A
C2905      C2910   1.391       .  A
C2905      H2915   1.085       .  S
C2906      C2911   1.466       .  S
C2906      C2907   1.401       .  A
C2907      C2908   1.394       .  A
C2907      F2912   1.358       .  S
C2908      C2909   1.407       .  A
C2908      H2913   1.084       .  S
C2909      C2910   1.402       .  A
C2910      F2914   1.357       .  S
C2911      C2916   1.406       .  A
C2911      C2920   1.400       .  A
C2916      C2917   1.393       .  A
C2916      F2921   1.358       .  S
C2917      C2918   1.401       .  A
C2917      H2922   1.083       .  S
C2918      C2919   1.408       .  A
C2919      C2920   1.394       .  A
C2919      F2923   1.358       .  S
C2920      H2924   1.083       .  S
C2925      C2926   1.401       .  A
C2925      C2930   1.394       .  A
C2925      H2935   1.083       .  S
C2926      C2931   1.481       .  S
C2926      C2927   1.405       .  A
C2927      C2928   1.404       .  A
C2927      F2932   1.357       .  S
C2928      C2929   1.409       .  A
C2928      H2933   1.082       .  S
C2929      C2930   1.412       .  A
C2930      F2934   1.358       .  S
C2931      C2936   1.403       .  A
C2931      C2940   1.406       .  A
C2936      C2937   1.392       .  A
C2936      F2941   1.358       .  S
C2937      C2938   1.406       .  A
C2937      H2942   1.083       .  S
C2938      C2939   1.409       .  A
C2939      C2940   1.404       .  A
C2939      F2943   1.357       .  S
C2940      H2944   1.082       .  S
C2945      C2946   1.411   1_554  A
C2945      C2950   1.412       .  A
C2945      H2955   1.084       .  S
C2946      C2951   1.526       .  S
C2946      C2947   1.416       .  A
C2947      C2948   1.417       .  A
C2947      F2952   1.357       .  S
C2948      C2949   1.412       .  A
C2948      H2953   1.084       .  S
C2949      C2950   1.416   1_556  A
C2950      F2954   1.357       .  S
C2951      C2956   1.414       .  A
C2951      C2960   1.413   1_556  A
C2956      C2957   1.413       .  A
C2956      F2961   1.357       .  S
C2957      C2958   1.412       .  A
C2957      H2962   1.084       .  S
C2958      C2959   1.414   1_556  A
C2959      C2960   1.417       .  A
C2959      F2963   1.357       .  S
C2960      H2964   1.083       .  S
C2965      C2966   1.404       .  A
C2965      C2970   1.403       .  A
C2965      H2975   1.085       .  S
C2966      C2971   1.479       .  S
C2966      C2967   1.405       .  A
C2967      C2968   1.391       .  A
C2967      F2972   1.358       .  S
C2968      C2969   1.404       .  A
C2968      H2973   1.085       .  S
C2969      C2970   1.410       .  A
C2970      F2974   1.357       .  S
C2971      C2976   1.406       .  A
C2971      C2980   1.401       .  A
C2976      C2977   1.405       .  A
C2976      F2981   1.357       .  S
C2977      C2978   1.409       .  A
C2977      H2982   1.084       .  S
C2978      C2979   1.410       .  A
C2979      C2980   1.390       .  A
C2979      F2983   1.358       .  S
C2980      H2984   1.085       .  S
C2985      C2986   1.402       .  A
C2985      C2990   1.401       .  A
C2985      H2995   1.083       .  S
C2986      C2991   1.468       .  S
C2986      C2987   1.402       .  A
C2987      C2988   1.390       .  A
C2987      F2992   1.358       .  S
C2988      C2989   1.405       .  A
C2988      H2993   1.083       .  S
C2989      C2990   1.409       .  A
C2990      F2994   1.357       .  S
C2991      C2996   1.404       .  A
C2991      C3000   1.399       .  A
C2996      C2997   1.402       .  A
C2996      F3001   1.357       .  S
C2997      C2998   1.406       .  A
C2997      H3002   1.083       .  S
C2998      C2999   1.405       .  A
C2999      C3000   1.388       .  A
C2999      F3003   1.358       .  S
C3000      H3004   1.084       .  S
C3005      C3006   1.402       .  A
C3005      C3010   1.390       .  A
C3005      H3015   1.087       .  S
C3006      C3011   1.480       .  S
C3006      C3007   1.406       .  A
C3007      C3008   1.401       .  A
C3007      F3012   1.357       .  S
C3008      C3009   1.409       .  A
C3008      H3013   1.086       .  S
C3009      C3010   1.408       .  A
C3010      F3014   1.357       .  S
C3011      C3016   1.407       .  A
C3011      C3020   1.402       .  A
C3016      C3017   1.401       .  A
C3016      F3021   1.357       .  S
C3017      C3018   1.406       .  A
C3017      H3022   1.085       .  S
C3018      C3019   1.409       .  A
C3019      C3020   1.388       .  A
C3019      F3023   1.358       .  S
C3020      H3024   1.085       .  S
C3025      C3026   1.403       .  A
C3025      C3030   1.398       .  A
C3025      H3035   1.087       .  S
C3026      C3031   1.478       .  S
C3026      C3027   1.405       .  A
C3027      C3028   1.394       .  A
C3027      F3032   1.358       .  S
C3028      C3029   1.407       .  A
C3028      H3033   1.086       .  S
C3029      C3030   1.410       .  A
C3030      F3034   1.357       .  S
C3031      C3036   1.405       .  A
C3031      C3040   1.404       .  A
C3036      C3037   1.395       .  A
C3036      F3041   1.357       .  S
C3037      C3038   1.403       .  A
C3037      H3042   1.089       .  S
C3038      C3039   1.406       .  A
C3039      C3040   1.396       .  A
C3039      F3043   1.358       .  S
C3040      H3044   1.089       .  S
C3045      C3046   1.412       .  A
C3045      C3050   1.412       .  A
C3045      H3055   1.085       .  S
C3046      C3051   1.508       .  S
C3046      C3047   1.410       .  A
C3047      C3048   1.403       .  A
C3047      F3052   1.357       .  S
C3048      C3049   1.407       .  A
C3048      H3053   1.085       .  S
C3049      C3050   1.411       .  A
C3050      F3054   1.357       .  S
C3051      C3056   1.410       .  A
C3051      C3060   1.409       .  A
C3056      C3057   1.408       .  A
C3056      F3061   1.357       .  S
C3057      C3058   1.411       .  A
C3057      H3062   1.085       .  S
C3058      C3059   1.411       .  A
C3059      C3060   1.407       .  A
C3059      F3063   1.357       .  S
C3060      H3064   1.085       .  S
C3065      C3066   1.412       .  A
C3065      C3070   1.419       .  A
C3065      H3075   1.084       .  S
C3066      C3071   1.517   1_554  S
C3066      C3067   1.409       .  A
C3067      C3068   1.410       .  A
C3067      F3072   1.357       .  S
C3068      C3069   1.412       .  A
C3068      H3073   1.084       .  S
C3069      C3070   1.417       .  A
C3070      F3074   1.357       .  S
C3071      C3076   1.411       .  A
C3071      C3080   1.409       .  A
C3076      C3077   1.416       .  A
C3076      F3081   1.357       .  S
C3077      C3078   1.414       .  A
C3077      H3082   1.083       .  S
C3078      C3079   1.416       .  A
C3079      C3080   1.413       .  A
C3079      F3083   1.357       .  S
C3080      H3084   1.083       .  S
C3085      C3086   1.397       .  A
C3085      C3090   1.388       .  A
C3085      H3095   1.082       .  S
C3086      C3091   1.457       .  S
C3086      C3087   1.404       .  A
C3087      C3088   1.393       .  A
C3087      F3092   1.358       .  S
C3088      C3089   1.401       .  A
C3088      H3093   1.082       .  S
C3089      C3090   1.407       .  A
C3090      F3094   1.358       .  S
C3091      C3096   1.396       .  A
C3091      C3100   1.404       .  A
C3096      C3097   1.390       .  A
C3096      F3101   1.357       .  S
C3097      C3098   1.409       .  A
C3097      H3102   1.084       .  S
C3098      C3099   1.401       .  A
C3099      C3100   1.389       .  A
C3099      F3103   1.358       .  S
C3100      H3104   1.084       .  S
C3105      C3106   1.400       .  A
C3105      C3110   1.394       .  A
C3105      H3115   1.083       .  S
C3106      C3111   1.465       .  S
C3106      C3107   1.406       .  A
C3107      C3108   1.390       .  A
C3107      F3112   1.358       .  S
C3108      C3109   1.401       .  A
C3108      H3113   1.083       .  S
C3109      C3110   1.408       .  A
C3110      F3114   1.357       .  S
C3111      C3116   1.406       .  A
C3111      C3120   1.399       .  A
C3116      C3117   1.390       .  A
C3116      F3121   1.358       .  S
C3117      C3118   1.400       .  A
C3117      H3122   1.083       .  S
C3118      C3119   1.410       .  A
C3119      C3120   1.393       .  A
C3119      F3123   1.358       .  S
C3120      H3124   1.084       .  S
C3125      C3126   1.406       .  A
C3125      C3130   1.396       .  A
C3125      H3135   1.085       .  S
C3126      C3131   1.484       .  S
C3126      C3127   1.407       .  A
C3127      C3128   1.398       .  A
C3127      F3132   1.357       .  S
C3128      C3129   1.404       .  A
C3128      H3133   1.085       .  S
C3129      C3130   1.407       .  A
C3130      F3134   1.358       .  S
C3131      C3136   1.409       .  A
C3131      C3140   1.402       .  A
C3136      C3137   1.401       .  A
C3136      F3141   1.357       .  S
C3137      C3138   1.406       .  A
C3137      H3142   1.083       .  S
C3138      C3139   1.410       .  A
C3139      C3140   1.391       .  A
C3139      F3143   1.358       .  S
C3140      H3144   1.083       .  S
C3145      C3146   1.412       .  A
C3145      C3150   1.414       .  A
C3145      H3155   1.083       .  S
C3146      C3151   1.521       .  S
C3146      C3147   1.414   1_556  A
C3147      C3148   1.411       .  A
C3147      F3152   1.357       .  S
C3148      C3149   1.411   1_554  A
C3148      H3153   1.084       .  S
C3149      C3150   1.415       .  A
C3150      F3154   1.357       .  S
C3151      C3156   1.415       .  A
C3151      C3160   1.413   1_556  A
C3156      C3157   1.412       .  A
C3156      F3161   1.357       .  S
C3157      C3158   1.411       .  A
C3157      H3162   1.084       .  S
C3158      C3159   1.410   1_556  A
C3159      C3160   1.413       .  A
C3159      F3163   1.357       .  S
C3160      H3164   1.083       .  S
C3165      C3166   1.396       .  A
C3165      C3170   1.394       .  A
C3165      H3175   1.083       .  S
C3166      C3171   1.461       .  S
C3166      C3167   1.403       .  A
C3167      C3168   1.392       .  A
C3167      F3172   1.358       .  S
C3168      C3169   1.401       .  A
C3168      H3173   1.083       .  S
C3169      C3170   1.414       .  A
C3170      F3174   1.358       .  S
C3171      C3176   1.404       .  A
C3171      C3180   1.397       .  A
C3176      C3177   1.392       .  A
C3176      F3181   1.358       .  S
C3177      C3178   1.401       .  A
C3177      H3182   1.083       .  S
C3178      C3179   1.410       .  A
C3179      C3180   1.394       .  A
C3179      F3183   1.358       .  S
C3180      H3184   1.083       .  S
C3185      C3186   1.403       .  A
C3185      C3190   1.390       .  A
C3185      H3195   1.084       .  S
C3186      C3191   1.469       .  S
C3186      C3187   1.402       .  A
C3187      C3188   1.397       .  A
C3187      F3192   1.358       .  S
C3188      C3189   1.407       .  A
C3188      H3193   1.083       .  S
C3189      C3190   1.402       .  A
C3190      F3194   1.358       .  S
C3191      C3196   1.407       .  A
C3191      C3200   1.400       .  A
C3196      C3197   1.393       .  A
C3196      F3201   1.357       .  S
C3197      C3198   1.400       .  A
C3197      H3202   1.083       .  S
C3198      C3199   1.411       .  A
C3199      C3200   1.392       .  A
C3199      F3203   1.359       .  S
C3200      H3204   1.083       .  S
C3205      C3206   1.403       .  A
C3205      C3210   1.395       .  A
C3205      H3215   1.083       .  S
C3206      C3211   1.485       .  S
C3206      C3207   1.408       .  A
C3207      C3208   1.402       .  A
C3207      F3212   1.357       .  S
C3208      C3209   1.406       .  A
C3208      H3213   1.083       .  S
C3209      C3210   1.410       .  A
C3210      F3214   1.358       .  S
C3211      C3216   1.406       .  A
C3211      C3220   1.407       .  A
C3216      C3217   1.393       .  A
C3216      F3221   1.358       .  S
C3217      C3218   1.406       .  A
C3217      H3222   1.083       .  S
C3218      C3219   1.409       .  A
C3219      C3220   1.404       .  A
C3219      F3223   1.357       .  S
C3220      H3224   1.083       .  S
C3225      C3226   1.409       .  A
C3225      C3230   1.409       .  A
C3225      H3235   1.084       .  S
C3226      C3231   1.512       .  S
C3226      C3227   1.411   1_554  A
C3227      C3228   1.411       .  A
C3227      F3232   1.357       .  S
C3228      C3229   1.412   1_556  A
C3228      H3233   1.084       .  S
C3229      C3230   1.414       .  A
C3230      F3234   1.357       .  S
C3231      C3236   1.410       .  A
C3231      C3240   1.414   1_554  A
C3236      C3237   1.403       .  A
C3236      F3241   1.357       .  S
C3237      C3238   1.407       .  A
C3237      H3242   1.085       .  S
C3238      C3239   1.409   1_554  A
C3239      C3240   1.414       .  A
C3239      F3243   1.357       .  S
C3240      H3244   1.084       .  S
C3245      C3246   1.415   1_554  A
C3245      C3250   1.421       .  A
C3245      H3255   1.083       .  S
C3246      C3251   1.532       .  S
C3246      C3247   1.416       .  A
C3247      C3248   1.415       .  A
C3247      F3252   1.357       .  S
C3248      C3249   1.411       .  A
C3248      H3253   1.083       .  S
C3249      C3250   1.416   1_556  A
C3250      F3254   1.357       .  S
C3251      C3256   1.417       .  A
C3251      C3260   1.412   1_556  A
C3256      C3257   1.422       .  A
C3256      F3261   1.357       .  S
C3257      C3258   1.415       .  A
C3257      H3262   1.083       .  S
C3258      C3259   1.416   1_556  A
C3259      C3260   1.414       .  A
C3259      F3263   1.357       .  S
C3260      H3264   1.083       .  S
C3265      C3266   1.399       .  A
C3265      C3270   1.398       .  A
C3265      H3275   1.084       .  S
C3266      C3271   1.471       .  S
C3266      C3267   1.404       .  A
C3267      C3268   1.395       .  A
C3267      F3272   1.358       .  S
C3268      C3269   1.405       .  A
C3268      H3273   1.084       .  S
C3269      C3270   1.412       .  A
C3270      F3274   1.358       .  S
C3271      C3276   1.404       .  A
C3271      C3280   1.397       .  A
C3276      C3277   1.402       .  A
C3276      F3281   1.357       .  S
C3277      C3278   1.408       .  A
C3277      H3282   1.083       .  S
C3278      C3279   1.414       .  A
C3279      C3280   1.391       .  A
C3279      F3283   1.358       .  S
C3280      H3284   1.084       .  S
C3285      C3286   1.404       .  A
C3285      C3290   1.406       .  A
C3285      H3295   1.084       .  S
C3286      C3291   1.477       .  S
C3286      C3287   1.402       .  A
C3287      C3288   1.388       .  A
C3287      F3292   1.358       .  S
C3288      C3289   1.406       .  A
C3288      H3293   1.084       .  S
C3289      C3290   1.411       .  A
C3290      F3294   1.357       .  S
C3291      C3296   1.403       .  A
C3291      C3300   1.404       .  A
C3296      C3297   1.394       .  A
C3296      F3301   1.358       .  S
C3297      C3298   1.405       .  A
C3297      H3302   1.084       .  S
C3298      C3299   1.407       .  A
C3299      C3300   1.403       .  A
C3299      F3303   1.357       .  S
C3300      H3304   1.083       .  S
C3305      C3306   1.407       .  A
C3305      C3310   1.403       .  A
C3305      H3315   1.082       .  S
C3306      C3311   1.511       .  S
C3306      C3307   1.414       .  A
C3307      C3308   1.418       .  A
C3307      F3312   1.357       .  S
C3308      C3309   1.410       .  A
C3308      H3313   1.082       .  S
C3309      C3310   1.410       .  A
C3310      F3314   1.358       .  S
C3311      C3316   1.406       .  A
C3311      C3320   1.414       .  A
C3316      C3317   1.399       .  A
C3316      F3321   1.358       .  S
C3317      C3318   1.412       .  A
C3317      H3322   1.083       .  S
C3318      C3319   1.415       .  A
C3319      C3320   1.421       .  A
C3319      F3323   1.357       .  S
C3320      H3324   1.083       .  S
C3325      C3326   1.397       .  A
C3325      C3330   1.391       .  A
C3325      H3335   1.086       .  S
C3326      C3331   1.472       .  S
C3326      C3327   1.404       .  A
C3327      C3328   1.402       .  A
C3327      F3332   1.357       .  S
C3328      C3329   1.408       .  A
C3328      H3333   1.084       .  S
C3329      C3330   1.413       .  A
C3330      F3334   1.358       .  S
C3331      C3336   1.402       .  A
C3331      C3340   1.402       .  A
C3336      C3337   1.396       .  A
C3336      F3341   1.358       .  S
C3337      C3338   1.407       .  A
C3337      H3342   1.084       .  S
C3338      C3339   1.408       .  A
C3339      C3340   1.398       .  A
C3339      F3343   1.357       .  S
C3340      H3344   1.085       .  S
C3345      C3346   1.397       .  A
C3345      C3350   1.388       .  A
C3345      H3355   1.084       .  S
C3346      C3351   1.465       .  S
C3346      C3347   1.401       .  A
C3347      C3348   1.400       .  A
C3347      F3352   1.357       .  S
C3348      C3349   1.409       .  A
C3348      H3353   1.083       .  S
C3349      C3350   1.412       .  A
C3350      F3354   1.358       .  S
C3351      C3356   1.403       .  A
C3351      C3360   1.403       .  A
C3356      C3357   1.392       .  A
C3356      F3361   1.357       .  S
C3357      C3358   1.399       .  A
C3357      H3362   1.084       .  S
C3358      C3359   1.402       .  A
C3359      C3360   1.397       .  A
C3359      F3363   1.358       .  S
C3360      H3364   1.083       .  S
C3365      C3366   1.413       .  A
C3365      C3370   1.419       .  A
C3365      H3375   1.083       .  S
C3366      C3371   1.516       .  S
C3366      C3367   1.411       .  A
C3367      C3368   1.405       .  A
C3367      F3372   1.357       .  S
C3368      C3369   1.408       .  A
C3368      H3373   1.084       .  S
C3369      C3370   1.412       .  A
C3370      F3374   1.357       .  S
C3371      C3376   1.409       .  A
C3371      C3380   1.413       .  A
C3376      C3377   1.404       .  A
C3376      F3381   1.358       .  S
C3377      C3378   1.413       .  A
C3377      H3382   1.083       .  S
C3378      C3379   1.415       .  A
C3379      C3380   1.421       .  A
C3379      F3383   1.356       .  S
C3380      H3384   1.083       .  S
C3385      C3386   1.410       .  A
C3385      C3390   1.410       .  A
C3385      H3395   1.083       .  S
C3386      C3391   1.512   1_565  S
C3386      C3387   1.412       .  A
C3387      C3388   1.410       .  A
C3387      F3392   1.357       .  S
C3388      C3389   1.411       .  A
C3388      H3393   1.083       .  S
C3389      C3390   1.411       .  A
C3390      F3394   1.357       .  S
C3391      C3396   1.411       .  A
C3391      C3400   1.411       .  A
C3396      C3397   1.408       .  A
C3396      F3401   1.357       .  S
C3397      C3398   1.410       .  A
C3397      H3402   1.083       .  S
C3398      C3399   1.414       .  A
C3399      C3400   1.412       .  A
C3399      F3403   1.357       .  S
C3400      H3404   1.083       .  S
C3405      C3406   1.405       .  A
C3405      C3410   1.393       .  A
C3405      H3415   1.084       .  S
C3406      C3411   1.465       .  S
C3406      C3407   1.399       .  A
C3407      C3408   1.387       .  A
C3407      F3412   1.358       .  S
C3408      C3409   1.408       .  A
C3408      H3413   1.085       .  S
C3409      C3410   1.403       .  A
C3410      F3414   1.357       .  S
C3411      C3416   1.409       .  A
C3411      C3420   1.397       .  A
C3416      C3417   1.391       .  A
C3416      F3421   1.358       .  S
C3417      C3418   1.400       .  A
C3417      H3422   1.084       .  S
C3418      C3419   1.412       .  A
C3419      C3420   1.389       .  A
C3419      F3423   1.358       .  S
C3420      H3424   1.084       .  S
C3425      C3426   1.407       .  A
C3425      C3430   1.399       .  A
C3425      H3435   1.084       .  S
C3426      C3431   1.479       .  S
C3426      C3427   1.409       .  A
C3427      C3428   1.388       .  A
C3427      F3432   1.357       .  S
C3428      C3429   1.401       .  A
C3428      H3433   1.085       .  S
C3429      C3430   1.406       .  A
C3430      F3434   1.357       .  S
C3431      C3436   1.407       .  A
C3431      C3440   1.404       .  A
C3436      C3437   1.397       .  A
C3436      F3441   1.358       .  S
C3437      C3438   1.404       .  A
C3437      H3442   1.084       .  S
C3438      C3439   1.407       .  A
C3439      C3440   1.392       .  A
C3439      F3443   1.358       .  S
C3440      H3444   1.084       .  S
C3445      C3446   1.404       .  A
C3445      C3450   1.391       .  A
C3445      H3455   1.083       .  S
C3446      C3451   1.482       .  S
C3446      C3447   1.407       .  A
C3447      C3448   1.398       .  A
C3447      F3452   1.357       .  S
C3448      C3449   1.406       .  A
C3448      H3453   1.083       .  S
C3449      C3450   1.409       .  A
C3450      F3454   1.358       .  S
C3451      C3456   1.408       .  A
C3451      C3460   1.408       .  A
C3456      C3457   1.391       .  A
C3456      F3461   1.358       .  S
C3457      C3458   1.401       .  A
C3457      H3462   1.083       .  S
C3458      C3459   1.402       .  A
C3459      C3460   1.399       .  A
C3459      F3463   1.357       .  S
C3460      H3464   1.082       .  S
C3465      C3466   1.403       .  A
C3465      C3470   1.397       .  A
C3465      H3475   1.083       .  S
C3466      C3471   1.478       .  S
C3466      C3467   1.405       .  A
C3467      C3468   1.396       .  A
C3467      F3472   1.358       .  S
C3468      C3469   1.406       .  A
C3468      H3473   1.083       .  S
C3469      C3470   1.407       .  A
C3470      F3474   1.357       .  S
C3471      C3476   1.405       .  A
C3471      C3480   1.404       .  A
C3476      C3477   1.394       .  A
C3476      F3481   1.358       .  S
C3477      C3478   1.407       .  A
C3477      H3482   1.083       .  S
C3478      C3479   1.409       .  A
C3479      C3480   1.400       .  A
C3479      F3483   1.357       .  S
C3480      H3484   1.083       .  S
C3485      C3486   1.400   1_565  A
C3485      C3490   1.397       .  A
C3485      H3495   1.082       .  S
C3486      C3491   1.507       .  S
C3486      C3487   1.415       .  A
C3487      C3488   1.423       .  A
C3487      F3492   1.357       .  S
C3488      C3489   1.415   1_545  A
C3488      H3493   1.081       .  S
C3489      C3490   1.417       .  A
C3490      F3494   1.357       .  S
C3491      C3496   1.408       .  A
C3491      C3500   1.411   1_545  A
C3496      C3497   1.404       .  A
C3496      F3501   1.358       .  S
C3497      C3498   1.409       .  A
C3497      H3502   1.084       .  S
C3498      C3499   1.412   1_545  A
C3499      C3500   1.419       .  A
C3499      F3503   1.356       .  S
C3500      H3504   1.083       .  S
C3505      C3506   1.397       .  A
C3505      C3510   1.392       .  A
C3505      H3515   1.082       .  S
C3506      C3511   1.459       .  S
C3506      C3507   1.406       .  A
C3507      C3508   1.389       .  A
C3507      F3512   1.358       .  S
C3508      C3509   1.398       .  A
C3508      H3513   1.082       .  S
C3509      C3510   1.409       .  A
C3510      F3514   1.358       .  S
C3511      C3516   1.404       .  A
C3511      C3520   1.397       .  A
C3516      C3517   1.390       .  A
C3516      F3521   1.358       .  S
C3517      C3518   1.401       .  A
C3517      H3522   1.081       .  S
C3518      C3519   1.411       .  A
C3519      C3520   1.391       .  A
C3519      F3523   1.358       .  S
C3520      H3524   1.081       .  S
C3525      C3526   1.396       .  A
C3525      C3530   1.388       .  A
C3525      H3535   1.084       .  S
C3526      C3531   1.460       .  S
C3526      C3527   1.407       .  A
C3527      C3528   1.391       .  A
C3527      F3532   1.358       .  S
C3528      C3529   1.401       .  A
C3528      H3533   1.083       .  S
C3529      C3530   1.410       .  A
C3530      F3534   1.358       .  S
C3531      C3536   1.396       .  A
C3531      C3540   1.406       .  A
C3536      C3537   1.387       .  A
C3536      F3541   1.358       .  S
C3537      C3538   1.407       .  A
C3537      H3542   1.085       .  S
C3538      C3539   1.401       .  A
C3539      C3540   1.393       .  A
C3539      F3543   1.357       .  S
C3540      H3544   1.085       .  S
C3545      C3546   1.399       .  A
C3545      C3550   1.389       .  A
C3545      H3555   1.088       .  S
C3546      C3551   1.479       .  S
C3546      C3547   1.408       .  A
C3547      C3548   1.403       .  A
C3547      F3552   1.357       .  S
C3548      C3549   1.407       .  A
C3548      H3553   1.086       .  S
C3549      C3550   1.411       .  A
C3550      F3554   1.358       .  S
C3551      C3556   1.406       .  A
C3551      C3560   1.403       .  A
C3556      C3557   1.395       .  A
C3556      F3561   1.358       .  S
C3557      C3558   1.406       .  A
C3557      H3562   1.086       .  S
C3558      C3559   1.408       .  A
C3559      C3560   1.398       .  A
C3559      F3563   1.357       .  S
C3560      H3564   1.087       .  S
C3565      C3566   1.400       .  A
C3565      C3570   1.390       .  A
C3565      H3575   1.085       .  S
C3566      C3571   1.472       .  S
C3566      C3567   1.405       .  A
C3567      C3568   1.400       .  A
C3567      F3572   1.357       .  S
C3568      C3569   1.405       .  A
C3568      H3573   1.084       .  S
C3569      C3570   1.406       .  A
C3570      F3574   1.358       .  S
C3571      C3576   1.403       .  A
C3571      C3580   1.402       .  A
C3576      C3577   1.394       .  A
C3576      F3581   1.358       .  S
C3577      C3578   1.405       .  A
C3577      H3582   1.085       .  S
C3578      C3579   1.409       .  A
C3579      C3580   1.398       .  A
C3579      F3583   1.358       .  S
C3580      H3584   1.086       .  S
C3585      C3586   1.404       .  A
C3585      C3590   1.405       .  A
C3585      H3595   1.082       .  S
C3586      C3591   1.502       .  S
C3586      C3587   1.410   1_545  A
C3587      C3588   1.416       .  A
C3587      F3592   1.357       .  S
C3588      C3589   1.409   1_565  A
C3588      H3593   1.081       .  S
C3589      C3590   1.413       .  A
C3590      F3594   1.358       .  S
C3591      C3596   1.403   1_545  A
C3591      C3600   1.411       .  A
C3596      C3597   1.402       .  A
C3596      F3601   1.358       .  S
C3597      C3598   1.412       .  A
C3597      H3602   1.083       .  S
C3598      C3599   1.412   1_565  A
C3599      C3600   1.418       .  A
C3599      F3603   1.357       .  S
C3600      H3604   1.083       .  S
C3605      C3606   1.411       .  A
C3605      C3610   1.414       .  A
C3605      H3615   1.082       .  S
C3606      C3611   1.521       .  S
C3606      C3607   1.414   1_545  A
C3607      C3608   1.412       .  A
C3607      F3612   1.357       .  S
C3608      C3609   1.412   1_565  A
C3608      H3613   1.083       .  S
C3609      C3610   1.414       .  A
C3610      F3614   1.357       .  S
C3611      C3616   1.415       .  A
C3611      C3620   1.412   1_545  A
C3616      C3617   1.414       .  A
C3616      F3621   1.357       .  S
C3617      C3618   1.409       .  A
C3617      H3622   1.083       .  S
C3618      C3619   1.410   1_545  A
C3619      C3620   1.411       .  A
C3619      F3623   1.357       .  S
C3620      H3624   1.083       .  S
C3625      C3626   1.404       .  A
C3625      C3630   1.401       .  A
C3625      H3635   1.084       .  S
C3626      C3631   1.478       .  S
C3626      C3627   1.403       .  A
C3627      C3628   1.393       .  A
C3627      F3632   1.358       .  S
C3628      C3629   1.407       .  A
C3628      H3633   1.084       .  S
C3629      C3630   1.409       .  A
C3630      F3634   1.357       .  S
C3631      C3636   1.406       .  A
C3631      C3640   1.401       .  A
C3636      C3637   1.397       .  A
C3636      F3641   1.358       .  S
C3637      C3638   1.406       .  A
C3637      H3642   1.084       .  S
C3638      C3639   1.411       .  A
C3639      C3640   1.397       .  A
C3639      F3643   1.357       .  S
C3640      H3644   1.084       .  S
C3645      C3646   1.400       .  A
C3645      C3650   1.392       .  A
C3645      H3655   1.084       .  S
C3646      C3651   1.469       .  S
C3646      C3647   1.404       .  A
C3647      C3648   1.397       .  A
C3647      F3652   1.358       .  S
C3648      C3649   1.407       .  A
C3648      H3653   1.084       .  S
C3649      C3650   1.410       .  A
C3650      F3654   1.357       .  S
C3651      C3656   1.405       .  A
C3651      C3660   1.400       .  A
C3656      C3657   1.403       .  A
C3656      F3661   1.357       .  S
C3657      C3658   1.405       .  A
C3657      H3662   1.084       .  S
C3658      C3659   1.403       .  A
C3659      C3660   1.389       .  A
C3659      F3663   1.358       .  S
C3660      H3664   1.084       .  S
C3665      C3666   1.411       .  A
C3665      C3670   1.417       .  A
C3665      H3675   1.082       .  S
C3666      C3671   1.502       .  S
C3666      C3667   1.405       .  A
C3667      C3668   1.399       .  A
C3667      F3672   1.358       .  S
C3668      C3669   1.411       .  A
C3668      H3673   1.083       .  S
C3669      C3670   1.412       .  A
C3670      F3674   1.356       .  S
C3671      C3676   1.412       .  A
C3671      C3680   1.405       .  A
C3676      C3677   1.416       .  A
C3676      F3681   1.357       .  S
C3677      C3678   1.409       .  A
C3677      H3682   1.081       .  S
C3678      C3679   1.410       .  A
C3679      C3680   1.400       .  A
C3679      F3683   1.358       .  S
C3680      H3684   1.082       .  S
C3685      C3686   1.399       .  A
C3685      C3690   1.389       .  A
C3685      H3695   1.085       .  S
C3686      C3691   1.478       .  S
C3686      C3687   1.407       .  A
C3687      C3688   1.403       .  A
C3687      F3692   1.357       .  S
C3688      C3689   1.406       .  A
C3688      H3693   1.084       .  S
C3689      C3690   1.412       .  A
C3690      F3694   1.358       .  S
C3691      C3696   1.406       .  A
C3691      C3700   1.403       .  A
C3696      C3697   1.395       .  A
C3696      F3701   1.358       .  S
C3697      C3698   1.406       .  A
C3697      H3702   1.085       .  S
C3698      C3699   1.408       .  A
C3699      C3700   1.396       .  A
C3699      F3703   1.357       .  S
C3700      H3704   1.085       .  S
C3705      C3706   1.406       .  A
C3705      C3710   1.404       .  A
C3705      H3715   1.083       .  S
C3706      C3711   1.485       .  S
C3706      C3707   1.405       .  A
C3707      C3708   1.393       .  A
C3707      F3712   1.358       .  S
C3708      C3709   1.406       .  A
C3708      H3713   1.083       .  S
C3709      C3710   1.410       .  A
C3710      F3714   1.357       .  S
C3711      C3716   1.408       .  A
C3711      C3720   1.403       .  A
C3716      C3717   1.404       .  A
C3716      F3721   1.357       .  S
C3717      C3718   1.407       .  A
C3717      H3722   1.084       .  S
C3718      C3719   1.407       .  A
C3719      C3720   1.394       .  A
C3719      F3723   1.358       .  S
C3720      H3724   1.084       .  S
C3725      C3726   1.411       .  A
C3725      C3730   1.416       .  A
C3725      H3735   1.083       .  S
C3726      C3731   1.500       .  S
C3726      C3727   1.406       .  A
C3727      C3728   1.397       .  A
C3727      F3732   1.358       .  S
C3728      C3729   1.407       .  A
C3728      H3733   1.084       .  S
C3729      C3730   1.412       .  A
C3730      F3734   1.357       .  S
C3731      C3736   1.406       .  A
C3731      C3740   1.410       .  A
C3736      C3737   1.396       .  A
C3736      F3741   1.358       .  S
C3737      C3738   1.410       .  A
C3737      H3742   1.086       .  S
C3738      C3739   1.413       .  A
C3739      C3740   1.415       .  A
C3739      F3743   1.356       .  S
C3740      H3744   1.086       .  S
C3745      C3746   1.411       .  A
C3745      C3750   1.414       .  A
C3745      H3755   1.086       .  S
C3746      C3751   1.517   1_655  S
C3746      C3747   1.412       .  A
C3747      C3748   1.408       .  A
C3747      F3752   1.357       .  S
C3748      C3749   1.411       .  A
C3748      H3753   1.086       .  S
C3749      C3750   1.415       .  A
C3750      F3754   1.357       .  S
C3751      C3756   1.413       .  A
C3751      C3760   1.410       .  A
C3756      C3757   1.411       .  A
C3756      F3761   1.357       .  S
C3757      C3758   1.411       .  A
C3757      H3762   1.086       .  S
C3758      C3759   1.414       .  A
C3759      C3760   1.410       .  A
C3759      F3763   1.357       .  S
C3760      H3764   1.086       .  S
C3765      C3766   1.405       .  A
C3765      C3770   1.390       .  A
C3765      H3775   1.083       .  S
C3766      C3771   1.471       .  S
C3766      C3767   1.403       .  A
C3767      C3768   1.398       .  A
C3767      F3772   1.358       .  S
C3768      C3769   1.406       .  A
C3768      H3773   1.083       .  S
C3769      C3770   1.398       .  A
C3770      F3774   1.358       .  S
C3771      C3776   1.401       .  A
C3771      C3780   1.407       .  A
C3776      C3777   1.391       .  A
C3776      F3781   1.358       .  S
C3777      C3778   1.406       .  A
C3777      H3782   1.083       .  S
C3778      C3779   1.403       .  A
C3779      C3780   1.398       .  A
C3779      F3783   1.357       .  S
C3780      H3784   1.083       .  S
C3785      C3786   1.404       .  A
C3785      C3790   1.391       .  A
C3785      H3795   1.085       .  S
C3786      C3791   1.465       .  S
C3786      C3787   1.399       .  A
C3787      C3788   1.391       .  A
C3787      F3792   1.358       .  S
C3788      C3789   1.410       .  A
C3788      H3793   1.084       .  S
C3789      C3790   1.405       .  A
C3790      F3794   1.357       .  S
C3791      C3796   1.406       .  A
C3791      C3800   1.398       .  A
C3796      C3797   1.390       .  A
C3796      F3801   1.358       .  S
C3797      C3798   1.402       .  A
C3797      H3802   1.084       .  S
C3798      C3799   1.411       .  A
C3799      C3800   1.391       .  A
C3799      F3803   1.358       .  S
C3800      H3804   1.084       .  S
C3805      C3806   1.407       .  A
C3805      C3810   1.403       .  A
C3805      H3815   1.085       .  S
C3806      C3811   1.485       .  S
C3806      C3807   1.406       .  A
C3807      C3808   1.392       .  A
C3807      F3812   1.358       .  S
C3808      C3809   1.403       .  A
C3808      H3813   1.085       .  S
C3809      C3810   1.408       .  A
C3810      F3814   1.357       .  S
C3811      C3816   1.407       .  A
C3811      C3820   1.404       .  A
C3816      C3817   1.400       .  A
C3816      F3821   1.357       .  S
C3817      C3818   1.407       .  A
C3817      H3822   1.086       .  S
C3818      C3819   1.408       .  A
C3819      C3820   1.395       .  A
C3819      F3823   1.358       .  S
C3820      H3824   1.086       .  S
C3825      C3826   1.402       .  A
C3825      C3830   1.399       .  A
C3825      H3835   1.084       .  S
C3826      C3831   1.471       .  S
C3826      C3827   1.404       .  A
C3827      C3828   1.391       .  A
C3827      F3832   1.358       .  S
C3828      C3829   1.403       .  A
C3828      H3833   1.084       .  S
C3829      C3830   1.408       .  A
C3830      F3834   1.357       .  S
C3831      C3836   1.402       .  A
C3831      C3840   1.402       .  A
C3836      C3837   1.393       .  A
C3836      F3841   1.358       .  S
C3837      C3838   1.404       .  A
C3837      H3842   1.083       .  S
C3838      C3839   1.411       .  A
C3839      C3840   1.399       .  A
C3839      F3843   1.358       .  S
C3840      H3844   1.083       .  S
C3845      C3846   1.406   1_655  A
C3845      C3850   1.407       .  A
C3845      H3855   1.083       .  S
C3846      C3851   1.501       .  S
C3846      C3847   1.409       .  A
C3847      C3848   1.406       .  A
C3847      F3852   1.357       .  S
C3848      C3849   1.410       .  A
C3848      H3853   1.083       .  S
C3849      C3850   1.415   1_455  A
C3850      F3854   1.357       .  S
C3851      C3856   1.412   1_455  A
C3851      C3860   1.404       .  A
C3856      C3857   1.411       .  A
C3856      F3861   1.357       .  S
C3857      C3858   1.408   1_655  A
C3857      H3862   1.081       .  S
C3858      C3859   1.414       .  A
C3859      C3860   1.401       .  A
C3859      F3863   1.358       .  S
C3860      H3864   1.082       .  S
C3865      C3866   1.401       .  A
C3865      C3870   1.395       .  A
C3865      H3875   1.084       .  S
C3866      C3871   1.476       .  S
C3866      C3867   1.409       .  A
C3867      C3868   1.393       .  A
C3867      F3872   1.357       .  S
C3868      C3869   1.402       .  A
C3868      H3873   1.084       .  S
C3869      C3870   1.413       .  A
C3870      F3874   1.358       .  S
C3871      C3876   1.403       .  A
C3871      C3880   1.407       .  A
C3876      C3877   1.394       .  A
C3876      F3881   1.358       .  S
C3877      C3878   1.406       .  A
C3877      H3882   1.084       .  S
C3878      C3879   1.402       .  A
C3879      C3880   1.394       .  A
C3879      F3883   1.358       .  S
C3880      H3884   1.084       .  S
C3885      C3886   1.406       .  A
C3885      C3890   1.390       .  A
C3885      H3895   1.083       .  S
C3886      C3891   1.472       .  S
C3886      C3887   1.402       .  A
C3887      C3888   1.392       .  A
C3887      F3892   1.358       .  S
C3888      C3889   1.407       .  A
C3888      H3893   1.083       .  S
C3889      C3890   1.404       .  A
C3890      F3894   1.358       .  S
C3891      C3896   1.402       .  A
C3891      C3900   1.408       .  A
C3896      C3897   1.389       .  A
C3896      F3901   1.358       .  S
C3897      C3898   1.406       .  A
C3897      H3902   1.083       .  S
C3898      C3899   1.402       .  A
C3899      C3900   1.394       .  A
C3899      F3903   1.357       .  S
C3900      H3904   1.082       .  S
C3905      C3906   1.404       .  A
C3905      C3910   1.400       .  A
C3905      H3915   1.083       .  S
C3906      C3911   1.471       .  S
C3906      C3907   1.402       .  A
C3907      C3908   1.389       .  A
C3907      F3912   1.358       .  S
C3908      C3909   1.405       .  A
C3908      H3913   1.083       .  S
C3909      C3910   1.407       .  A
C3910      F3914   1.357       .  S
C3911      C3916   1.405       .  A
C3911      C3920   1.401       .  A
C3916      C3917   1.393       .  A
C3916      F3921   1.358       .  S
C3917      C3918   1.404       .  A
C3917      H3922   1.084       .  S
C3918      C3919   1.407       .  A
C3919      C3920   1.397       .  A
C3919      F3923   1.357       .  S
C3920      H3924   1.084       .  S
C3925      C3926   1.406       .  A
C3925      C3930   1.404       .  A
C3925      H3935   1.083       .  S
C3926      C3931   1.483       .  S
C3926      C3927   1.404       .  A
C3927      C3928   1.394       .  A
C3927      F3932   1.358       .  S
C3928      C3929   1.408       .  A
C3928      H3933   1.083       .  S
C3929      C3930   1.410       .  A
C3930      F3934   1.357       .  S
C3931      C3936   1.408       .  A
C3931      C3940   1.402       .  A
C3936      C3937   1.399       .  A
C3936      F3941   1.358       .  S
C3937      C3938   1.407       .  A
C3937      H3942   1.085       .  S
C3938      C3939   1.410       .  A
C3939      C3940   1.396       .  A
C3939      F3943   1.357       .  S
C3940      H3944   1.085       .  S
C3945      C3946   1.410       .  A
C3945      C3950   1.409       .  A
C3945      H3955   1.082       .  S
C3946      C3951   1.504       .  S
C3946      C3947   1.409   1_655  A
C3947      C3948   1.409       .  A
C3947      F3952   1.357       .  S
C3948      C3949   1.407   1_455  A
C3948      H3953   1.083       .  S
C3949      C3950   1.407       .  A
C3950      F3954   1.357       .  S
C3951      C3956   1.414   1_655  A
C3951      C3960   1.402       .  A
C3956      C3957   1.417       .  A
C3956      F3961   1.357       .  S
C3957      C3958   1.411   1_455  A
C3957      H3962   1.082       .  S
C3958      C3959   1.415       .  A
C3959      C3960   1.401       .  A
C3959      F3963   1.358       .  S
C3960      H3964   1.083       .  S
C3965      C3966   1.410   1_655  A
C3965      C3970   1.412       .  A
C3965      H3975   1.084       .  S
C3966      C3971   1.514       .  S
C3966      C3967   1.411       .  A
C3967      C3968   1.410       .  A
C3967      F3972   1.357       .  S
C3968      C3969   1.411       .  A
C3968      H3973   1.084       .  S
C3969      C3970   1.414   1_455  A
C3970      F3974   1.357       .  S
C3971      C3976   1.411   1_455  A
C3971      C3980   1.410       .  A
C3976      C3977   1.410       .  A
C3976      F3981   1.357       .  S
C3977      C3978   1.411   1_655  A
C3977      H3982   1.083       .  S
C3978      C3979   1.415       .  A
C3979      C3980   1.412       .  A
C3979      F3983   1.357       .  S
C3980      H3984   1.083       .  S
