geometry optimzed in LAMMPS
_audit_creation_date              2020-12-01 
_audit_creation_method            'lammps2cif' 
_symmetry_space_group_name_H-M    'P1' 
_symmetry_Int_Tables_number       1 
_symmetry_cell_setting            triclinic 
loop_ 
_symmetry_equiv_pos_as_xyz 
  x,y,z 
_cell_length_a                    29.53193286 
_cell_length_b                    29.534891898759124 
_cell_length_c                    73.29180391017442 
_cell_angle_alpha                 89.981529558411 
_cell_angle_beta                  89.99112916021669 
_cell_angle_gamma                 90.0533192653393 
loop_ 
_atom_site_label 
_atom_site_type_symbol 
_atom_site_fract_x 
_atom_site_fract_y 
_atom_site_fract_z 
_atom_site_charge 
C1          C  0.30436236  0.01274828  0.44193614     0.87500
C2          C  0.31276905  0.97575945  0.45605969    -0.52800
C3          C  0.29570393  0.98526443  0.47289204     0.10400
C4          C  0.27212160  0.03358702  0.47395207     0.21300
C5          C  0.25347961  0.02029152  0.44193847    -0.53500
C6          C  0.23526487  0.03005967  0.45867236     0.10500
C7          C  0.32378114  0.05592081  0.44984966    -0.53000
C8          C  0.30708677  0.06996891  0.46649551     0.11100
H9          H  0.33112549  0.44480998  0.45303353     0.15600
H10         H  0.25897911  0.04178209  0.48770807     0.01300
H11         H  0.23396762  0.01667993  0.42951822     0.15900
H12         H  0.34615418  0.07579503  0.44127120     0.15700
C13         C  0.33653602  0.18605818  0.45431755     0.87500
C14         C  0.35033016  0.14090639  0.46281279    -0.52800
C15         C  0.31722140  0.11963489  0.47286311     0.10400
C16         C  0.28036648  0.15602106  0.47877976     0.21300
C17         C  0.28735913  0.18057427  0.44758455    -0.53500
C18         C  0.25698448  0.16621981  0.46064436     0.10500
C19         C  0.33299613  0.21807012  0.47022602    -0.53000
C20         C  0.30386951  0.20373372  0.48334323     0.11100
H21         H  0.38043955  0.12355793  0.45799563     0.15600
H22         H  0.25760700  0.14375774  0.48972656     0.01300
H23         H  0.27803227  0.19024291  0.43383883     0.15900
H24         H  0.35100656  0.25015296  0.47092272     0.15700
C25         C  0.13766858  0.18064313  0.44081417     0.87500
C26         C  0.12850509  0.21864575  0.45454441    -0.52800
C27         C  0.14570208  0.21061196  0.47156111     0.10400
C28         C  0.17002679  0.16295839  0.47316912     0.21300
C29         C  0.18855281  0.17395310  0.44098897    -0.53500
C30         C  0.20673706  0.16576774  0.45782703     0.10500
C31         C  0.11905788  0.13785167  0.44928096    -0.53000
C32         C  0.13562339  0.12574957  0.46623727     0.11100
H33         H  0.10961187  0.24904732  0.45118024     0.15600
H34         H  0.18328696  0.15598991  0.48701651     0.01300
H35         H  0.20813776  0.17657413  0.42853410     0.15900
H36         H  0.09717070  0.11683205  0.44096022     0.15700
C37         C  0.10473695  0.01171204  0.45527629     0.87500
C38         C  0.09116132  0.05627463  0.46417438    -0.52800
C39         C  0.12494261  0.07731506  0.47374205     0.10400
C40         C  0.16143777  0.04042550  0.47968121     0.21300
C41         C  0.15413589  0.01661639  0.44851475    -0.53500
C42         C  0.18484090  0.03014735  0.46155731     0.10500
C43         C  0.10783653  0.97907457  0.47099470    -0.53000
C44         C  0.13716854  0.99289969  0.48419429     0.11100
H45         H  0.06108158  0.07407584  0.45955000     0.15600
H46         H  0.18432391  0.05233481  0.49063939     0.01300
H47         H  0.16326453  0.00737317  0.43470147     0.15900
H48         H  0.08940600  0.44718343  0.47156651     0.15700
C49         C  0.38721639  0.27755629  0.28083025     0.87500
C50         C  0.43013950  0.25805328  0.27280977    -0.52800
C51         C  0.44324154  0.27383414  0.25589781     0.10400
C52         C  0.40635234  0.30818016  0.24836847     0.21300
C53         C  0.39442964  0.32830658  0.28026718    -0.53500
C54         C  0.40290831  0.34568055  0.26329032     0.10500
C55         C  0.34948184  0.26811030  0.26701491    -0.53000
C56         C  0.35816181  0.28466909  0.24994508     0.11100
H57         H  0.45062887  0.23653516  0.28144175     0.15600
H58         H  0.41395955  0.32082356  0.23447210     0.01300
H59         H  0.39135939  0.34833527  0.29256892     0.15900
H60         H  0.31860346  0.24996860  0.27040404     0.15700
C61         C  0.06020903  0.24352975  0.26699440     0.87500
C62         C  0.09080522  0.24650662  0.25058931    -0.52800
C63         C  0.07585813  0.27586849  0.23764801     0.10400
C64         C  0.02879900  0.29982741  0.24283585     0.21300
C65         C  0.05594074  0.29290429  0.27368738    -0.53500
C66         C  0.04040923  0.32321115  0.26084084     0.10500
C67         C  0.01412007  0.23023656  0.25920210    -0.53000
C68         C  0.49255273  0.26329273  0.24923139     0.11100
H69         H  0.12281974  0.22852909  0.24957038     0.15600
H70         H  0.01587964  0.32265619  0.23204760     0.01300
H71         H  0.06666853  0.30241764  0.28729211     0.15900
H72         H  0.49668980  0.20052561  0.26440771     0.15700
C73         C  0.38215427  0.47543832  0.26639274     0.87500
C74         C  0.34947409  0.47271308  0.25069579    -0.52800
C75         C  0.36321767  0.44384045  0.23732353     0.10400
C76         C  0.41067268  0.41912153  0.24178011     0.21300
C77         C  0.38697403  0.42613885  0.27296054    -0.53500
C78         C  0.40074909  0.39570172  0.25994526     0.10500
C79         C  0.42682874  0.48909338  0.25743400    -0.53000
C80         C  0.44784028  0.45522180  0.24780967     0.11100
H81         H  0.31765425  0.49116028  0.25025708     0.15600
H82         H  0.42241011  0.39617400  0.23081178     0.01300
H83         H  0.37798647  0.41699949  0.28679566     0.15900
H84         H  0.44486705  0.51892938  0.26221025     0.15700
C85         C  0.05027127  0.44262877  0.28115907     0.87500
C86         C  0.00701518  0.45967747  0.27271104    -0.52800
C87         C  0.49588141  0.44369524  0.25561260     0.10400
C88         C  0.03427802  0.41038286  0.24867802     0.21300
C89         C  0.04544824  0.39145612  0.28087752    -0.53500
C90         C  0.03820464  0.37337517  0.26391072     0.10500
C91         C  0.08811862  0.45341782  0.26757319    -0.53000
C92         C  0.08117865  0.43602570  0.25054963     0.11100
H93         H  0.48509095  0.48056630  0.28109528     0.15600
H94         H  0.02807576  0.39719935  0.23475871     0.01300
H95         H  0.04865492  0.37167765  0.29326068     0.15900
H96         H  0.11773567  0.47343987  0.27106907     0.15700
In97       In  0.38656870  0.24297195  0.37099442     1.36900
C98         C  0.38783919  0.22469955  0.40589227     0.78600
O99         O  0.44938903  0.28442329  0.36970311    -0.59900
O100        O  0.38381495  0.31555126  0.37428999    -0.50800
C101        C  0.38486480  0.24896753  0.33542002     0.71200
O102        O  0.41455315  0.22468535  0.34354875    -0.45600
C103        C  0.32144655  0.18788098  0.36537335     0.75900
O104        O  0.41747136  0.20768830  0.39520460    -0.57500
O105        O  0.31501403  0.22908767  0.36962962    -0.47600
O106        O  0.36015962  0.25218381  0.39874114    -0.53900
C107        C  0.42579260  0.32027554  0.37117317     0.86100
O108        O  0.35747271  0.27038540  0.34557936    -0.55800
O109        O  0.36208925  0.17350488  0.36521735    -0.59100
In110      In  0.35005454  0.50138657  0.35272539     1.36900
C111        C  0.35924792  0.51197938  0.31746671     0.78600
O112        O  0.42115381  0.47992986  0.35735102    -0.59900
O113        O  0.36785019  0.43061555  0.35248056    -0.50800
C114        C  0.34228812  0.50173480  0.38828040     0.71200
O115        O  0.36591319  0.03182871  0.38001899    -0.45600
C116        C  0.27204456  0.53774894  0.35359828     0.75900
O117        O  0.37835394  0.53914238  0.32862494    -0.57500
O118        O  0.27723932  0.49554636  0.35094590    -0.47600
O119        O  0.33629435  0.48019820  0.32450827    -0.53900
C120        C  0.40880227  0.43867023  0.35662179     0.86100
O121        O  0.32408401  0.47163956  0.37833705    -0.55800
O122        O  0.30738498  0.06229935  0.35452054    -0.59100
In123      In  0.11898880  0.20004431  0.35048255     1.36900
C124        C  0.11297880  0.19012219  0.38614775     0.78600
O125        O  0.16726261  0.14281252  0.35139919    -0.59900
O126        O  0.19171791  0.21126641  0.34861399    -0.50800
C127        C  0.09986128  0.19397326  0.31547689     0.71200
O128        O  0.08174438  0.16691759  0.32692985    -0.45600
C129        C  0.07354889  0.27278211  0.35484723     0.75900
O130        O  0.09113000  0.16386432  0.37542340    -0.57500
O131        O  0.11598062  0.27305727  0.35234293    -0.47600
O132        O  0.13725875  0.21974565  0.37852030    -0.53900
C133        C  0.20063593  0.16979204  0.35085363     0.86100
O134        O  0.12876807  0.22104068  0.32192978    -0.55800
O135        O  0.05339084  0.23497235  0.35393746    -0.59100
In136      In  0.07860384  0.48055633  0.36990837     1.36900
C137        C  0.06425214  0.48993954  0.40499466     0.78600
O138        O  0.02698935  0.42754978  0.36851489    -0.59900
O139        O  0.09763455  0.40943170  0.37063187    -0.50800
C140        C  0.06406803  0.48039456  0.33461521     0.71200
O141        O  0.03595665  0.49960498  0.34538045    -0.45600
C142        C  0.14924218  0.53038738  0.36651920     0.75900
O143        O  0.03928808  0.01060052  0.39353254    -0.57500
O144        O  0.15109549  0.48838256  0.36959318    -0.47600
O145        O  0.09484355  0.46528240  0.39834499    -0.53900
C146        C  0.05696484  0.39700333  0.36851272     0.86100
O147        O  0.09904418  0.46415110  0.34194068    -0.55800
O148        O  0.11029236  0.04853780  0.36645584    -0.59100
C149        C  0.30068548  0.44370637  0.19100348     0.87500
C150        C  0.33871738  0.45303078  0.20472974    -0.52800
C151        C  0.33069067  0.43578656  0.22174447     0.10400
C152        C  0.28287957  0.41194969  0.22343328     0.21300
C153        C  0.29401197  0.39274335  0.19133061    -0.53500
C154        C  0.28614983  0.37487743  0.20829986     0.10500
C155        C  0.25785216  0.46245535  0.19935819    -0.53000
C156        C  0.24572629  0.44644461  0.21635354     0.11100
H157        H  0.36927129  0.47168870  0.20132495     0.15600
H158        H  0.27584321  0.39896506  0.23732227     0.01300
H159        H  0.29709870  0.37289947  0.17897158     0.15900
H160        H  0.23686006  0.48416324  0.19098487     0.15700
C161        C  0.30695206  0.24492076  0.20522663     0.87500
C162        C  0.26165209  0.23191343  0.21382386    -0.52800
C163        C  0.24101524  0.26570413  0.22363580     0.10400
C164        C  0.27838747  0.30147144  0.22973001     0.21300
C165        C  0.30271589  0.29430651  0.19857334    -0.53500
C166        C  0.28869372  0.32480766  0.21156237     0.10500
C167        C  0.33919555  0.24737776  0.22107929    -0.53000
C168        C  0.32561039  0.27653885  0.23433230     0.11100
H169        H  0.24330928  0.20251009  0.20884440     0.15600
H170        H  0.26660292  0.32439336  0.24068896     0.01300
H171        H  0.31199235  0.30351935  0.18476148     0.15900
H172        H  0.37084573  0.22865354  0.22165117     0.15700
C173        C  0.13043585  0.47926816  0.20602913     0.87500
C174        C  0.17627155  0.49198158  0.21420852    -0.52800
C175        C  0.19739215  0.45806136  0.22381117     0.10400
C176        C  0.16051706  0.42197446  0.23007031     0.21300
C177        C  0.13435218  0.42995790  0.19917849    -0.53500
C178        C  0.14910484  0.39910872  0.21198538     0.10500
C179        C  0.09927168  0.47622660  0.22224133    -0.53000
C180        C  0.11356772  0.44642907  0.23515179     0.11100
H181        H  0.19426888  0.52159490  0.20920394     0.15600
H182        H  0.17293095  0.39874922  0.24081961     0.01300
H183        H  0.12405807  0.42103918  0.18546047     0.15900
H184        H  0.06742671  0.49453052  0.22316529     0.15700
C185        C  0.13696935  0.28067285  0.19119352     0.87500
C186        C  0.09950923  0.27004229  0.20496502    -0.52800
C187        C  0.10766339  0.28641604  0.22206507     0.10400
C188        C  0.15506300  0.31132280  0.22372379     0.21300
C189        C  0.14283081  0.33161336  0.19176505    -0.53500
C190        C  0.15099293  0.34898746  0.20874245     0.10500
C191        C  0.18035748  0.26230046  0.19921180    -0.53000
C192        C  0.19260736  0.27766784  0.21629903     0.11100
H193        H  0.06930716  0.25082833  0.20154850     0.15600
H194        H  0.16216512  0.32391943  0.23766544     0.01300
H195        H  0.13943814  0.35181622  0.17951020     0.15900
H196        H  0.20145086  0.24125500  0.19060517     0.15700
In197      In  0.34428941  0.21648095  0.11997405     1.36900
C198        C  0.34450646  0.21401182  0.08427113     0.78600
O199        O  0.27453794  0.24336832  0.11736985    -0.59900
O200        O  0.33211573  0.28837743  0.12073246    -0.50800
C201        C  0.33397513  0.20443544  0.15503929     0.71200
O202        O  0.31569930  0.17721311  0.14368138    -0.45600
C203        C  0.42448838  0.18416947  0.11821676     0.75900
O204        O  0.32162030  0.18527126  0.09353065    -0.57500
O205        O  0.41699788  0.22577097  0.12123836    -0.47600
O206        O  0.36545722  0.24387617  0.09333598    -0.53900
C207        C  0.29006972  0.28348615  0.11784120     0.86100
O208        O  0.35745979  0.23608565  0.14828851    -0.55800
O209        O  0.39041146  0.15801395  0.11733634    -0.59100
In210      In  0.11626624  0.25068349  0.10141053     1.36900
C211        C  0.12679066  0.23429265  0.06652101     0.78600
O212        O  0.08669718  0.18250654  0.10610583    -0.59900
O213        O  0.04359210  0.24049530  0.10119773    -0.50800
C214        C  0.12492296  0.25057782  0.13693695     0.71200
O215        O  0.15362884  0.23001243  0.12684550    -0.45600
C216        C  0.14562139  0.33228483  0.10289121     0.75900
O217        O  0.15243467  0.21527992  0.07824900    -0.57500
O218        O  0.10403069  0.32347644  0.10051658    -0.47600
O219        O  0.09864379  0.26246270  0.07274657    -0.53900
C220        C  0.04707472  0.19886328  0.10514052     0.86100
O221        O  0.09247087  0.26972360  0.12877490    -0.55800
O222        O  0.17285114  0.29914007  0.10269295    -0.59100
In223      In  0.08099961  0.52210567  0.12183029     1.36900
C224        C  0.09562757  0.52906287  0.15706876     0.78600
O225        O  0.03272014  0.07938411  0.12070387    -0.59900
O226        O  0.00866039  0.51009928  0.12222117    -0.50800
C227        C  0.07831365  0.02559046  0.08594548     0.71200
O228        O  0.09789133  0.05695485  0.09510176    -0.45600
C229        C  0.13339187  0.45400776  0.11851202     0.75900
O230        O  0.11528106  0.05586318  0.14590166    -0.57500
O231        O  0.09201839  0.45026003  0.12282171    -0.47600
O232        O  0.06723937  0.50202214  0.15016282    -0.53900
C233        C  0.99968014  0.05184625  0.12015738     0.86100
O234        O  0.06245956  0.49313583  0.09514723    -0.55800
O235        O  0.14974778  0.49375465  0.11731098    -0.59100
In236      In  0.31015310  0.48214231  0.10109348     1.36900
C237        C  0.29947423  0.99566897  0.06595640     0.78600
O238        O  0.33845030  0.05097895  0.10533765    -0.59900
O239        O  0.38262398  0.49315056  0.10107305    -0.50800
C240        C  0.30740586  0.47832335  0.13681640     0.71200
O241        O  0.27799589  0.00137725  0.12786229    -0.45600
C242        C  0.27532945  0.40339766  0.10287887     0.75900
O243        O  0.27421323  0.01590687  0.07749670    -0.57500
O244        O  0.31705720  0.40936654  0.09952524    -0.47600
O245        O  0.32807457  0.46819355  0.07253423    -0.53900
C246        C  0.37833942  0.03493704  0.10489582     0.86100
O247        O  0.33753334  0.45874786  0.12740887    -0.55800
O248        O  0.25018837  0.43824711  0.10344074    -0.59100
C249        C  0.07987019  0.20113088  0.01740572     0.87500
C250        C  0.07770544  0.23313201  0.00142725    -0.52800
C251        C  0.04791549  0.21991420  0.98832272     0.10400
C252        C  0.02244699  0.17318031  0.99307812     0.21300
C253        C  0.03033344  0.19782118  0.02417625    -0.53500
C254        C  0.99938676  0.18445007  0.01117246     0.10500
C255        C  0.09193735  0.15556295  0.00889165    -0.53000
C256        C  0.05768003  0.13535790  0.99919745     0.11100
H257        H  0.09696604  0.26446915  0.00070408     0.15600
H258        H  0.99937943  0.16156756  0.98214412     0.01300
H259        H  0.02133758  0.20752680  0.03795892     0.15900
H260        H  0.12111392  0.13682307  0.01382807     0.15700
C261        C  0.37954979  0.20111715  0.03055483     0.87500
C262        C  0.36098485  0.15733685  0.02274544    -0.52800
C263        C  0.37764840  0.14359914  0.00602956     0.10400
C264        C  0.41244060  0.18015817  0.99867275     0.21300
C265        C  0.43057102  0.19445874  0.03070257    -0.53500
C266        C  0.44903176  0.18444410  0.01403590     0.10500
C267        C  0.37086292  0.23774470  0.01627037    -0.53000
C268        C  0.38853945  0.22815434  0.99953704     0.11100
H269        H  0.33883156  0.13719962  0.03126751     0.15600
H270        H  0.42575319  0.17194505  0.98495333     0.01300
H271        H  0.45000650  0.19883561  0.04311006     0.15900
H272        H  0.35212158  0.26858630  0.01909462     0.15700
C273        C  0.34340499  0.02757682  0.01641340     0.87500
C274        C  0.34561726  0.99689419  0.00000240    -0.52800
C275        C  0.37590946  0.01075917  0.98717655     0.10400
C276        C  0.40130167  0.05725317  0.99255321     0.21300
C277        C  0.39269072  0.03014446  0.02329594    -0.53500
C278        C  0.42382203  0.04481458  0.01064709     0.10500
C279        C  0.33182632  0.07407875  0.00864959    -0.53000
C280        C  0.36588857  0.09476364  0.99897211     0.11100
H281        H  0.32654765  0.46554089  0.99898406     0.15600
H282        H  0.42481918  0.06956933  0.98188493     0.01300
H283        H  0.40142542  0.01915006  0.03695068     0.15900
H284        H  0.30256313  0.09235914  0.01377106     0.15700
C285        C  0.04211562  0.03159340  0.03176800     0.87500
C286        C  0.06049055  0.07490157  0.02366798    -0.52800
C287        C  0.04524012  0.08712595  0.00658526     0.10400
C288        C  0.01147348  0.04972597  0.99917116     0.21300
C289        C  0.99107578  0.03749423  0.03114480    -0.53500
C290        C  0.97384324  0.04583289  0.01410356     0.10500
C291        C  0.05249934  0.99403698  0.01793702    -0.53000
C292        C  0.03594408  0.00223121  0.00081929     0.11100
H293        H  0.08159101  0.09609653  0.03224838     0.15600
H294        H  0.99895692  0.05688786  0.98522632     0.01300
H295        H  0.97076047  0.03417115  0.04337975     0.15900
H296        H  0.07157430  0.96377568  0.02133169     0.15700
C297        C  0.33667005  0.43581844  0.51777818     0.87500
C298        C  0.33386262  0.46756729  0.50172557    -0.52800
C299        C  0.30464093  0.45345822  0.48859553     0.10400
C300        C  0.28062986  0.40604367  0.49324402     0.21300
C301        C  0.28723196  0.43119924  0.52438348    -0.53500
C302        C  0.25700942  0.41682070  0.51125715     0.10500
C303        C  0.34995522  0.39028761  0.50955086    -0.53000
C304        C  0.31692059  0.36933803  0.49942014     0.11100
H305        H  0.35220630  0.49945073  0.50099705     0.15600
H306        H  0.25802440  0.39378100  0.48226001     0.01300
H307        H  0.27766941  0.44122912  0.53806527     0.15900
H308        H  0.37959347  0.37251942  0.51461254     0.15700
C309        C  0.30239048  0.26204828  0.53012705     0.87500
C310        C  0.32212928  0.30552768  0.52254326    -0.52800
C311        C  0.30619702  0.31981856  0.50578578     0.10400
C312        C  0.27155975  0.28368157  0.49799916     0.21300
C313        C  0.25166877  0.26963803  0.52983192    -0.53500
C314        C  0.23419780  0.27989834  0.51302444     0.10500
C315        C  0.31135832  0.22539669  0.51595881    -0.53000
C316        C  0.29493791  0.23533099  0.49907752     0.11100
H317        H  0.34400269  0.32530450  0.53132957     0.15600
H318        H  0.25894363  0.29219329  0.48419307     0.01300
H319        H  0.23180928  0.26575344  0.54214584     0.15900
H320        H  0.32946303  0.19427328  0.51896292     0.15700
C321        C  0.13709962  0.43098758  0.53045425     0.87500
C322        C  0.11902524  0.38793586  0.52203958    -0.52800
C323        C  0.13592708  0.37586913  0.50513565     0.10400
C324        C  0.17046173  0.41317259  0.49833174     0.21300
C325        C  0.18803177  0.42466216  0.53058206    -0.53500
C326        C  0.20671708  0.41632499  0.51385224     0.10500
C327        C  0.12809049  0.46873142  0.51665256    -0.53000
C328        C  0.14598064  0.46073228  0.49979417     0.11100
H329        H  0.09703757  0.36686672  0.53031695     0.15600
H330        H  0.18408383  0.40622836  0.48454296     0.01300
H331        H  0.20726755  0.42767750  0.54310575     0.15900
H332        H  0.10883880  0.49901769  0.51986515     0.12500
C333        C  0.10391429  0.26242608  0.51604031     0.87500
C334        C  0.10707125  0.22938597  0.50039501    -0.52800
C335        C  0.13662254  0.24294011  0.48715236     0.10400
C336        C  0.16111284  0.29040063  0.49165153     0.21300
C337        C  0.15312694  0.26713095  0.52282987    -0.53500
C338        C  0.18405135  0.28020916  0.50986262     0.10500
C339        C  0.09069881  0.30687217  0.50692363    -0.53000
C340        C  0.12484761  0.32765266  0.49746293     0.11100
H341        H  0.08857446  0.19757540  0.49992087     0.15600
H342        H  0.18431704  0.30204010  0.48075029     0.01300
H343        H  0.16189694  0.25817345  0.53671195     0.15900
H344        H  0.06067522  0.32496675  0.51145115     0.15700
C345        C  0.38657394  0.22359983  0.70445954     0.87500
C346        C  0.43120745  0.23776142  0.71321383    -0.52800
C347        C  0.45251350  0.20457065  0.72308988     0.10400
C348        C  0.41601837  0.16763148  0.72900758     0.21300
C349        C  0.39205771  0.17441390  0.69782054    -0.53500
C350        C  0.40600528  0.14409400  0.71088524     0.10500
C351        C  0.35405233  0.22027348  0.72020188    -0.53000
C352        C  0.36822872  0.19130028  0.73344075     0.11100
H353        H  0.44859783  0.26802734  0.70848414     0.15600
H354        H  0.42809456  0.14489048  0.73998577     0.01300
H355        H  0.38260494  0.16509318  0.68405208     0.15900
H356        H  0.32202508  0.23834254  0.72075101     0.15700
C357        C  0.05829743  0.19361646  0.69140795     0.87500
C358        C  0.09526843  0.20328934  0.70544102    -0.52800
C359        C  0.08666141  0.18587634  0.72232456     0.10400
C360        C  0.03912168  0.16081502  0.72354372     0.21300
C361        C  0.05230360  0.14257405  0.69145675    -0.53500
C362        C  0.04322144  0.12413929  0.70823954     0.10500
C363        C  0.01470763  0.21145533  0.69942327    -0.53000
C364        C  0.50173067  0.19466004  0.71622376     0.11100
H365        H  0.12563110  0.22260088  0.70233963     0.15600
H366        H  0.03159713  0.14730342  0.73731542     0.01300
H367        H  0.05580112  0.12321803  0.67899293     0.15900
H368        H  0.49391923  0.23292837  0.69086911     0.15700
C369        C  0.38942227  0.02519408  0.69093204     0.87500
C370        C  0.35181155  0.51636989  0.70475778    -0.52800
C371        C  0.36046248  0.03341870  0.72175362     0.10400
C372        C  0.40882087  0.05695978  0.72318562     0.21300
C373        C  0.39706456  0.07593671  0.69114135    -0.53500
C374        C  0.40601937  0.09387432  0.70797267     0.10500
C375        C  0.43229138  0.50552097  0.69912794    -0.53000
C376        C  0.44557046  0.02230928  0.71587444     0.11100
H377        H  0.32091137  0.49814431  0.70148033     0.15600
H378        H  0.41646000  0.07002375  0.73700963     0.01300
H379        H  0.39438257  0.09553631  0.67870932     0.15900
H380        H  0.45248668  0.48346642  0.69060755     0.15700
C381        C  0.06313434  0.99437131  0.70451068     0.87500
C382        C  0.01733884  0.48015296  0.71226413    -0.52800
C383        C  0.49529434  0.01289381  0.72231666     0.10400
C384        C  0.03123156  0.04969576  0.72891205     0.21300
C385        C  0.05865692  0.04381261  0.69808511    -0.53500
C386        C  0.04328191  0.07375987  0.71103448     0.10500
C387        C  0.09371248  0.49659713  0.72103648    -0.53000
C388        C  0.07828523  0.02563923  0.73412931     0.11100
H389        H  0.50051548  0.45006700  0.70711663     0.15600
H390        H  0.01811692  0.07224394  0.73975989     0.01300
H391        H  0.06973904  0.05366056  0.68456363     0.15900
H392        H  0.12579793  0.47873669  0.72198595     0.15700
In393      In  0.34955411  0.25343300  0.61900487     1.36900
C394        C  0.36102945  0.26251539  0.65400171     0.78600
O395        O  0.31001165  0.31657758  0.61740261    -0.59900
O396        O  0.27703490  0.25166291  0.62218463    -0.50800
C397        C  0.33855833  0.25149546  0.58379115     0.71200
O398        O  0.36372641  0.28128423  0.59137542    -0.45600
C399        C  0.40750888  0.19044942  0.61407076     0.75900
O400        O  0.38049293  0.28945576  0.64284469    -0.57500
O401        O  0.36696339  0.18252831  0.61889045    -0.47600
O402        O  0.33668925  0.23164451  0.64706659    -0.53900
C403        C  0.27359246  0.29393763  0.61927036     0.86100
O404        O  0.31969165  0.22292447  0.59429491    -0.55800
O405        O  0.42004444  0.23165947  0.61327530    -0.59100
In406      In  0.38771078  0.49268790  0.60066003     1.36900
C407        C  0.38705920  0.49600591  0.63642354     0.78600
O408        O  0.44898703  0.03604645  0.60159664    -0.59900
O409        O  0.38252525  0.06496974  0.59697431    -0.50800
C410        C  0.39004805  0.47346855  0.56592950     0.71200
O411        O  0.41753334  0.45430864  0.57696787    -0.45600
C412        C  0.31933111  0.44143498  0.60492212     0.75900
O413        O  0.41705948  0.47300775  0.62789306    -0.57500
O414        O  0.31548739  0.98334417  0.60143479    -0.47600
O415        O  0.35877418  0.01730111  0.62661966    -0.53900
C416        C  0.42437053  0.07110036  0.59981780     0.86100
O417        O  0.36461019  0.50354787  0.57265138    -0.55800
O418        O  0.35889503  0.42446715  0.60514430    -0.59100
In419      In  0.11588175  0.45973075  0.61977496     1.36900
C420        C  0.11034672  0.44601653  0.58453193     0.78600
O421        O  0.04954432  0.99247113  0.61474785    -0.59900
O422        O  0.10996988  0.03295067  0.61863536    -0.50800
C423        C  0.09922983  0.45142294  0.65489858     0.71200
O424        O  0.08169414  0.42420829  0.64339801    -0.45600
C425        C  0.19716220  0.42939348  0.61857293     0.75900
O426        O  0.08820580  0.42113067  0.59567056    -0.57500
O427        O  0.18862384  0.97137774  0.61953968    -0.47600
O428        O  0.13442455  0.47673906  0.59155071    -0.53900
C429        C  0.06817930  0.03110324  0.61480626     0.86100
O430        O  0.12562211  0.98109417  0.64827610    -0.55800
O431        O  0.16377968  0.40258527  0.61959492    -0.59100
In432      In  0.08265385  0.23583857  0.60228024     1.36900
C433        C  0.06869750  0.24544850  0.56715796     0.78600
O434        O  0.11252006  0.30427101  0.60662073    -0.59900
O435        O  0.15505364  0.24531116  0.60301753    -0.50800
C436        C  0.07259677  0.23101677  0.63779761     0.71200
O437        O  0.04547699  0.25468490  0.62809817    -0.45600
C438        C  0.05435698  0.15457208  0.60197111     0.75900
O439        O  0.04318913  0.26547947  0.57866811    -0.57500
O440        O  0.09588081  0.16415409  0.59990677    -0.47600
O441        O  0.10086075  0.22264024  0.57378523    -0.53900
C442        C  0.15189910  0.28707374  0.60660410     0.86100
O443        O  0.10422914  0.21147552  0.62929603    -0.55800
O444        O  0.02656844  0.18719047  0.60302366    -0.59100
C445        C  0.30737142  0.99132934  0.76595378     0.87500
C446        C  0.34059997  0.99460461  0.75039357    -0.52800
C447        C  0.32785781  0.02481105  0.73733039     0.10400
C448        C  0.28059695  0.04962050  0.74181171     0.21300
C449        C  0.30329918  0.04058172  0.77305448    -0.53500
C450        C  0.29078178  0.07205315  0.76011723     0.10500
C451        C  0.26272053  0.97908143  0.75675083    -0.53000
C452        C  0.24267567  0.01379280  0.74740999     0.11100
H453        H  0.37219766  0.47539387  0.74983056     0.15600
H454        H  0.26938352  0.07306916  0.73094119     0.01300
H455        H  0.31208728  0.04900118  0.78698834     0.15900
H456        H  0.24402683  0.44940246  0.76128106     0.15700
C457        C  0.14008595  0.02846219  0.78067099     0.87500
C458        C  0.18301732  0.50955225  0.77225938    -0.52800
C459        C  0.19471923  0.02561626  0.75515013     0.10400
C460        C  0.15762022  0.06003617  0.74815891     0.21300
C461        C  0.14691904  0.07920078  0.78028608    -0.53500
C462        C  0.15499419  0.09703298  0.76340445     0.10500
C463        C  0.10209776  0.51879147  0.76701598    -0.53000
C464        C  0.10993214  0.03575561  0.74986776     0.11100
H465        H  0.20416952  0.48779947  0.78060524     0.15600
H466        H  0.16456510  0.07308213  0.73426866     0.01300
H467        H  0.14467449  0.09895089  0.79270179     0.15900
H468        H  0.07179284  0.49978122  0.77046307     0.15700
C469        C  0.13706031  0.22712899  0.76717744     0.87500
C470        C  0.10506305  0.22457524  0.75114658    -0.52800
C471        C  0.11877866  0.19515917  0.73795971     0.10400
C472        C  0.16589702  0.17061157  0.74257470     0.21300
C473        C  0.14119470  0.17769181  0.77370640    -0.53500
C474        C  0.15497163  0.14723468  0.76059689     0.10500
C475        C  0.18258509  0.23998995  0.75873542    -0.53000
C476        C  0.20314162  0.20643891  0.74872041     0.11100
H477        H  0.07330982  0.24309077  0.75049652     0.15600
H478        H  0.17776214  0.14767120  0.73162685     0.01300
H479        H  0.13122436  0.16838629  0.78741880     0.15900
H480        H  0.20076330  0.26948338  0.76369723     0.15700
C481        C  0.30906255  0.19099265  0.78009778     0.87500
C482        C  0.26597819  0.21070806  0.77224904    -0.52800
C483        C  0.25210265  0.19469956  0.75547597     0.10400
C484        C  0.28809247  0.15952391  0.74801234     0.21300
C485        C  0.30129597  0.14013415  0.77998522    -0.53500
C486        C  0.29132685  0.12235206  0.76320611     0.10500
C487        C  0.34613211  0.19952077  0.76602044    -0.53000
C488        C  0.33650605  0.18269430  0.74916566     0.11100
H489        H  0.24616914  0.23300146  0.78085573     0.15600
H490        H  0.27986306  0.14681154  0.73420204     0.01300
H491        H  0.30500802  0.12028298  0.79232160     0.15900
H492        H  0.37721190  0.21772431  0.76905106     0.15700
C493        C  0.34955302  0.27611657  0.95418733     0.87500
C494        C  0.33506533  0.32132823  0.96239316    -0.52800
C495        C  0.36758378  0.34317068  0.97253702     0.10400
C496        C  0.40426933  0.30706262  0.97896906     0.21300
C497        C  0.39904010  0.28144771  0.94789062    -0.53500
C498        C  0.42866088  0.29628023  0.96108386     0.10500
C499        C  0.35216352  0.24455878  0.97026621    -0.53000
C500        C  0.38041507  0.25945540  0.98361526     0.11100
H501        H  0.30505357  0.33834088  0.95726974     0.15600
H502        H  0.42648613  0.31971528  0.99002110     0.01300
H503        H  0.40911245  0.27128922  0.93428973     0.15900
H504        H  0.33421215  0.21244418  0.97093188     0.15700
C505        C  0.38000457  0.44856052  0.94078228     0.87500
C506        C  0.36933297  0.48604132  0.95455216    -0.52800
C507        C  0.38590165  0.47818771  0.97167562     0.10400
C508        C  0.41077299  0.43055701  0.97335930     0.21300
C509        C  0.43108959  0.44284241  0.94143068    -0.53500
C510        C  0.44845498  0.43438971  0.95845057     0.10500
C511        C  0.36175794  0.40519991  0.94885033    -0.53000
C512        C  0.37750366  0.39264715  0.96582416     0.11100
H513        H  0.35013481  0.51618678  0.95108349     0.15600
H514        H  0.42341266  0.42344620  0.98729384     0.01300
H515        H  0.45127450  0.44604712  0.92916195     0.15900
H516        H  0.34097507  0.38401984  0.94014982     0.15700
C517        C  0.07861345  0.45411797  0.95594654     0.87500
C518        C  0.09210341  0.40876377  0.96421741    -0.52800
C519        C  0.05873092  0.38703411  0.97389440     0.10400
C520        C  0.02168466  0.42329836  0.97996537     0.21300
C521        C  0.02951425  0.44946576  0.94905771    -0.53500
C522        C  0.99868542  0.43471234  0.96179911     0.10500
C523        C  0.07516449  0.48539095  0.97212596    -0.53000
C524        C  0.04574060  0.47053795  0.98512620     0.11100
H525        H  0.12251964  0.39170641  0.95951536     0.15600
H526        H  0.99844770  0.41060680  0.99067535     0.01300
H527        H  0.02056780  0.45991562  0.93536499     0.15900
H528        H  0.09324819  0.51738341  0.97305778     0.15700
C529        C  0.04871338  0.28174962  0.94194003     0.87500
C530        C  0.05753097  0.24411234  0.95583236    -0.52800
C531        C  0.03957052  0.25236324  0.97268526     0.10400
C532        C  0.01514530  0.30018356  0.97401240     0.21300
C533        C  0.99780451  0.28826255  0.94181404    -0.53500
C534        C  0.97899470  0.29680530  0.95852662     0.10500
C535        C  0.06690745  0.32482053  0.95031099    -0.53000
C536        C  0.04949269  0.33763145  0.96701747     0.11100
H537        H  0.07657112  0.21366591  0.95267082     0.15600
H538        H  0.00132914  0.30740900  0.98775145     0.01300
H539        H  0.97874187  0.28532966  0.92924997     0.15900
H540        H  0.08890621  0.34565603  0.94193964     0.15700
In541      In  0.11845580  0.50405217  0.87120157     1.36900
C542        C  0.12364025  0.48600316  0.90626664     0.78600
O543        O  0.17609643  0.05161228  0.87243534    -0.59900
O544        O  0.10741431  0.07659900  0.87392179    -0.50800
C545        C  0.13057724  0.50369405  0.83559101     0.71200
O546        O  0.15666880  0.48094770  0.84607235    -0.45600
C547        C  0.04847514  0.45523497  0.86488373     0.75900
O548        O  0.15233304  0.46929030  0.89512574    -0.57500
O549        O  0.04565924  0.99721805  0.86837172    -0.47600
O550        O  0.09374286  0.51122816  0.89933659    -0.53900
C551        C  0.14936402  0.08513221  0.87295850     0.86100
O552        O  0.10009539  0.02679591  0.84344865    -0.55800
O553        O  0.08729261  0.43704818  0.86594995    -0.59100
In554      In  0.34249845  0.46156677  0.85070732     1.36900
C555        C  0.33005840  0.44768356  0.81579303     0.78600
O556        O  0.27364520  0.99118939  0.85465521    -0.59900
O557        O  0.33199182  0.03379774  0.84977562    -0.50800
C558        C  0.34587612  0.45571298  0.88649013     0.71200
O559        O  0.32343864  0.42672039  0.87717118    -0.45600
C560        C  0.42549022  0.43669834  0.85064616     0.75900
O561        O  0.31245644  0.42065165  0.82742497    -0.57500
O562        O  0.41397971  0.97756423  0.84840095    -0.47600
O563        O  0.35307769  0.97984549  0.82221359    -0.53900
C564        C  0.29030621  0.03074634  0.85350958     0.86100
O565        O  0.36502315  0.48668286  0.87746208    -0.55800
O566        O  0.39401240  0.40754717  0.85158631    -0.59100
In567      In  0.08385535  0.27269667  0.85186681     1.36900
C568        C  0.10221877  0.27575936  0.81667420     0.78600
O569        O  0.15206852  0.24610564  0.85834474    -0.59900
O570        O  0.09540922  0.20076527  0.85332833    -0.50800
C571        C  0.08024239  0.27607452  0.88760880     0.71200
O572        O  0.10347185  0.30506444  0.87856417    -0.45600
C573        C  0.00403611  0.30662744  0.85241996     0.75900
O574        O  0.11963706  0.30451737  0.82764872    -0.57500
O575        O  0.01117405  0.26482498  0.84980546    -0.47600
O576        O  0.07476063  0.24792501  0.82372110    -0.53900
C577        C  0.13627569  0.20604739  0.85826149     0.86100
O578        O  0.05921543  0.24670514  0.87828712    -0.55800
O579        O  0.03841766  0.33254315  0.85289307    -0.59100
In580      In  0.31820174  0.23123550  0.86919903     1.36900
C581        C  0.30762544  0.24326265  0.90424208     0.78600
O582        O  0.25726860  0.18881516  0.86585725    -0.59900
O583        O  0.32285620  0.15797964  0.87067956    -0.50800
C584        C  0.31911938  0.22708336  0.83371912     0.71200
O585        O  0.28840722  0.24935744  0.84214185    -0.45600
C586        C  0.38364459  0.28774164  0.86630400     0.75900
O587        O  0.28248331  0.26407768  0.89282207    -0.57500
O588        O  0.38990379  0.24617688  0.86995898    -0.47600
O589        O  0.33580035  0.21553098  0.89759035    -0.53900
C590        C  0.28113686  0.15311638  0.86695178     0.86100
O591        O  0.34931237  0.20860412  0.84350724    -0.55800
O592        O  0.34294041  0.30156277  0.86538487    -0.59100
C593        C  0.42143658  0.31519889  0.86173230    -0.12300
C594        C  0.45942272  0.32120990  0.85658345    -0.13800
C595        C  0.26418106  0.10941069  0.86260475    -0.12300
C596        C  0.26615021  0.07077032  0.85779018    -0.13800
C597        C  0.16396050  0.13034496  0.87041128    -0.12300
C598        C  0.16048221  0.16826460  0.86495579    -0.13800
C599        C  0.47149438  0.42604266  0.85386099    -0.12300
C600        C  0.50947418  0.43156249  0.85897345    -0.13800
C601        C  0.07635133  0.27596567  0.90724480    -0.12300
C602        C  0.06677697  0.27506865  0.92331636    -0.13800
C603        C  0.10840644  0.46830558  0.94078972    -0.12300
C604        C  0.12213065  0.47610224  0.92553434    -0.13800
C605        C  0.36262900  0.45483856  0.92198922    -0.12300
C606        C  0.35157207  0.45412446  0.90605535    -0.13800
C607        C  0.32097566  0.26130889  0.93879255    -0.12300
C608        C  0.30809721  0.25257109  0.92352706    -0.13800
C609        C  0.31908151  0.22043994  0.81429698    -0.12300
C610        C  0.31791143  0.20889575  0.79850071    -0.13800
C611        C  0.11415030  0.27160652  0.79756872    -0.12300
C612        C  0.12331172  0.25678768  0.78255392    -0.13800
C613        C  0.13394677  0.50457236  0.81591683    -0.12300
C614        C  0.13383899  0.01198381  0.79959379    -0.13800
C615        C  0.32328146  0.44575213  0.79638463    -0.12300
C616        C  0.31854326  0.96018012  0.78102622    -0.13800
C617        C  0.04149275  0.10920875  0.60485150    -0.12300
C618        C  0.04528415  0.07085311  0.60957020    -0.13800
C619        C  0.24178310  0.41457685  0.61487657    -0.12300
C620        C  0.28015712  0.41701068  0.60990374    -0.13800
C621        C  0.23014234  0.31270120  0.61633198    -0.12300
C622        C  0.19145100  0.31100049  0.61166073    -0.13800
C623        C  0.43491078  0.15376295  0.60826886    -0.12300
C624        C  0.44008693  0.11576638  0.60302866    -0.13800
C625        C  0.08824073  0.45224897  0.67408480    -0.12300
C626        C  0.07861939  0.96559020  0.68922882    -0.13800
C627        C  0.38459996  0.49929863  0.65604404    -0.12300
C628        C  0.38247814  0.00819381  0.67218368    -0.13800
C629        C  0.06603411  0.21221612  0.67294738    -0.12300
C630        C  0.06796188  0.22428150  0.65718168    -0.13800
C631        C  0.37334166  0.25253551  0.68903616    -0.12300
C632        C  0.36731316  0.26409811  0.67342635    -0.13800
C633        C  0.06416494  0.24874731  0.54762911    -0.12300
C634        C  0.07462051  0.25128709  0.53169612    -0.13800
C635        C  0.11038332  0.44018346  0.56506615    -0.12300
C636        C  0.11896659  0.43807874  0.54897038    -0.13800
C637        C  0.33022451  0.25075441  0.56447513    -0.12300
C638        C  0.31933000  0.25248649  0.54861581    -0.13800
C639        C  0.38392982  0.46026499  0.54718611    -0.12300
C640        C  0.36696425  0.45028081  0.53270961    -0.13800
C641        C  0.29966875  0.00509218  0.04665406    -0.12300
C642        C  0.31316467  0.01341099  0.03141969    -0.13800
C643        C  0.05979775  0.02534754  0.05053755    -0.12300
C644        C  0.07164128  0.02643308  0.06639247    -0.13800
C645        C  0.45484669  0.06503547  0.11571351    -0.12300
C646        C  0.41708268  0.06007761  0.11017910    -0.13800
C647        C  0.11045284  0.21422347  0.03245842    -0.12300
C648        C  0.12541964  0.22283548  0.04743209    -0.13800
C649        C  0.15933835  0.37689104  0.10743630    -0.12300
C650        C  0.15708143  0.41467932  0.11316366    -0.13800
C651        C  0.36088940  0.21012062  0.04889505    -0.12300
C652        C  0.34950413  0.21213368  0.06473225    -0.13800
C653        C  0.50768368  0.17399718  0.10970770    -0.12300
C654        C  0.46920447  0.16969611  0.11441036    -0.13800
C655        C  0.26399660  0.32199731  0.11341355    -0.12300
C656        C  0.25995009  0.35970117  0.10779986    -0.13800
C657        C  0.12986724  0.26378776  0.17247887    -0.12300
C658        C  0.12863033  0.25423986  0.15645036    -0.13800
C659        C  0.10668770  0.52530681  0.17621583    -0.12300
C660        C  0.11593084  0.50968466  0.19106125    -0.13800
C661        C  0.32006367  0.21541960  0.18990501    -0.12300
C662        C  0.32682541  0.20290946  0.17444344    -0.13800
C663        C  0.30671960  0.47251108  0.15637290    -0.12300
C664        C  0.30717828  0.46149787  0.17230231    -0.13800
C665        C  0.05134372  0.31317841  0.35974790    -0.12300
C666        C  0.04692981  0.35129721  0.36469524    -0.13800
C667        C  0.22820873  0.55484450  0.35716770    -0.12300
C668        C  0.18960297  0.55335878  0.36193579    -0.13800
C669        C  0.28397258  0.16147238  0.35962742    -0.12300
C670        C  0.24593690  0.15638924  0.35441173    -0.13800
C671        C  0.44262687  0.36423163  0.36728807    -0.12300
C672        C  0.43692114  0.40202969  0.36188069    -0.13800
C673        C  0.05724082  0.47407513  0.31535936    -0.12300
C674        C  0.05599004  0.46140262  0.29967727    -0.13800
C675        C  0.36967974  0.50401884  0.28209770    -0.12300
C676        C  0.36440326  0.51446095  0.29792318    -0.13800
C677        C  0.07581691  0.21352269  0.28190787    -0.12300
C678        C  0.08658137  0.19792758  0.29658217    -0.13800
C679        C  0.38021664  0.26138912  0.29969243    -0.12300
C680        C  0.38196973  0.25302864  0.31584560    -0.13800
C681        C  0.07480131  0.99953030  0.43998669    -0.12300
C682        C  0.06180617  0.99515035  0.42446149    -0.13800
C683        C  0.12030528  0.18704591  0.42204414    -0.12300
C684        C  0.11244045  0.18713463  0.40581119    -0.13800
C685        C  0.38239819  0.21175711  0.42473463    -0.12300
C686        C  0.36650604  0.20101890  0.43933657    -0.13800
C687        C  0.32250311  0.00391677  0.42350217    -0.12300
C688        C  0.33439617  0.00238411  0.40771197    -0.13800
C689        C  0.30428410  0.51274408  0.44190422     0.87500
C690        C  0.31272652  0.47576107  0.45602352    -0.52800
C691        C  0.29569552  0.48526383  0.47286000     0.10400
C692        C  0.27209733  0.53358148  0.47392659     0.21300
C693        C  0.25340219  0.52027678  0.44191885    -0.53500
C694        C  0.23521362  0.53004443  0.45865732     0.10500
C695        C  0.32370915  0.55592332  0.44980850    -0.53000
C696        C  0.30703863  0.56997225  0.46645752     0.11100
H697        H  0.33115889  0.94480032  0.45307458     0.15600
H698        H  0.25897580  0.54177504  0.48768619     0.01300
H699        H  0.23387434  0.51666371  0.42950289     0.15900
H700        H  0.34606074  0.57580044  0.44122295     0.15700
C701        C  0.33644333  0.68608690  0.45427104     0.87500
C702        C  0.35025331  0.64092897  0.46275789    -0.52800
C703        C  0.31716164  0.61964663  0.47281492     0.10400
C704        C  0.28029757  0.65601440  0.47873590     0.21300
C705        C  0.28726430  0.68059056  0.44754150    -0.53500
C706        C  0.25690296  0.66621650  0.46060397     0.10500
C707        C  0.33289960  0.71808452  0.47018392    -0.53000
C708        C  0.30378344  0.70372904  0.48330078     0.11100
H709        H  0.38036000  0.62358935  0.45793339     0.15600
H710        H  0.25754855  0.64373795  0.48968381     0.01300
H711        H  0.27792414  0.69026910  0.43379820     0.15900
H712        H  0.35089917  0.75017316  0.47088358     0.15700
C713        C  0.13756886  0.68057128  0.44078738     0.87500
C714        C  0.12838985  0.71858455  0.45451330    -0.52800
C715        C  0.14560307  0.71057865  0.47153079     0.10400
C716        C  0.16995595  0.66294185  0.47314282     0.21300
C717        C  0.18845551  0.67391045  0.44095861    -0.53500
C718        C  0.20665398  0.66575182  0.45779533     0.10500
C719        C  0.11898734  0.63777994  0.44926354    -0.53000
C720        C  0.13556526  0.62571197  0.46622203     0.11100
H721        H  0.10947372  0.74896983  0.45114631     0.15600
H722        H  0.18322950  0.65599395  0.48698989     0.01300
H723        H  0.20803312  0.67652326  0.42850156     0.15900
H724        H  0.09710799  0.61673815  0.44094959     0.15700
C725        C  0.10468781  0.51168005  0.45528482     0.87500
C726        C  0.09110755  0.55623859  0.46418500    -0.52800
C727        C  0.12489696  0.57729285  0.47374233     0.10400
C728        C  0.16140714  0.54041780  0.47967944     0.21300
C729        C  0.15407860  0.51659138  0.44851722    -0.53500
C730        C  0.18479390  0.53013075  0.46155318     0.10500
C731        C  0.10781144  0.47904736  0.47100739    -0.53000
C732        C  0.13715156  0.49289335  0.48420392     0.11100
H733        H  0.06102050  0.57403284  0.45956428     0.15600
H734        H  0.18430579  0.55234079  0.49063114     0.01300
H735        H  0.16319485  0.50734407  0.43470303     0.15900
H736        H  0.08941817  0.94721701  0.47154882     0.15700
C737        C  0.38717322  0.77768618  0.28081940     0.87500
C738        C  0.43008602  0.75815921  0.27279975    -0.52800
C739        C  0.44319160  0.77392823  0.25588670     0.10400
C740        C  0.40630685  0.80828047  0.24835351     0.21300
C741        C  0.39440885  0.82843055  0.28025014    -0.53500
C742        C  0.40287299  0.84579159  0.26327052     0.10500
C743        C  0.34942889  0.76824452  0.26700818    -0.53000
C744        C  0.35810678  0.78478737  0.24993596     0.11100
H745        H  0.45057086  0.73664122  0.28143351     0.15600
H746        H  0.41391353  0.82091572  0.23445566     0.01300
H747        H  0.39135998  0.84846678  0.29255077     0.15900
H748        H  0.31854605  0.75011576  0.27040173     0.15700
C749        C  0.06016122  0.74362319  0.26699658     0.87500
C750        C  0.09076554  0.74662262  0.25059456    -0.52800
C751        C  0.07581772  0.77598753  0.23765536     0.10400
C752        C  0.02875142  0.79992994  0.24284025     0.21300
C753        C  0.05587479  0.79299317  0.27369512    -0.53500
C754        C  0.04034335  0.82330461  0.26084855     0.10500
C755        C  0.01407492  0.73032842  0.25919929    -0.53000
C756        C  0.49251022  0.76338821  0.24922786     0.11100
H757        H  0.12278293  0.72865028  0.24957489     0.15600
H758        H  0.01583439  0.82276209  0.23205273     0.01300
H759        H  0.06659152  0.80250112  0.28730190     0.15900
H760        H  0.49664393  0.70061855  0.26440335     0.15700
C761        C  0.38205890  0.97553618  0.26637366     0.87500
C762        C  0.34941327  0.97282612  0.25066370    -0.52800
C763        C  0.36317735  0.94396029  0.23729185     0.10400
C764        C  0.41062913  0.91923801  0.24176087     0.21300
C765        C  0.38686225  0.92623315  0.27293397    -0.53500
C766        C  0.40067708  0.89580813  0.25992123     0.10500
C767        C  0.42675839  0.98919185  0.25743398    -0.53000
C768        C  0.44778859  0.95533255  0.24780762     0.11100
H769        H  0.31759035  0.99126699  0.25021932     0.15600
H770        H  0.42238770  0.89629304  0.23079499     0.01300
H771        H  0.37783811  0.91708307  0.28676395     0.15900
H772        H  0.44478524  0.01902447  0.26222038     0.15700
C773        C  0.05019795  0.94271365  0.28116964     0.87500
C774        C  0.00695706  0.95978466  0.27271386    -0.52800
C775        C  0.49583133  0.94380411  0.25561442     0.10400
C776        C  0.03422777  0.91048053  0.24868517     0.21300
C777        C  0.04535456  0.89154411  0.28088605    -0.53500
C778        C  0.03812859  0.87346828  0.26391824     0.10500
C779        C  0.08806673  0.95349062  0.26759040    -0.53000
C780        C  0.08113884  0.93610883  0.25056373     0.11100
H781        H  0.48503669  0.98068200  0.28109527     0.15600
H782        H  0.02803488  0.89730049  0.23476470     0.01300
H783        H  0.04854120  0.87176064  0.29326887     0.15900
H784        H  0.11768374  0.97350639  0.27109198     0.15700
In785      In  0.38662483  0.74319866  0.37098355     1.36900
C786        C  0.38784613  0.72490249  0.40587662     0.78600
O787        O  0.44947239  0.78461114  0.36966811    -0.59900
O788        O  0.38392647  0.81578894  0.37426497    -0.50800
C789        C  0.38483800  0.74917841  0.33541259     0.71200
O790        O  0.41455035  0.72491063  0.34353333    -0.45600
C791        C  0.32158300  0.68800005  0.36537802     0.75900
O792        O  0.41750639  0.70791693  0.39519505    -0.57500
O793        O  0.31508601  0.72920415  0.36962568    -0.47600
O794        O  0.36018748  0.75241028  0.39872566    -0.53900
C795        C  0.42590062  0.82048214  0.37113050     0.86100
O796        O  0.35745470  0.77059285  0.34557828    -0.55800
O797        O  0.36225054  0.67369257  0.36521727    -0.59100
In798      In  0.35003358  0.00150868  0.35273360     1.36900
C799        C  0.35912698  0.01207820  0.31746026     0.78600
O800        O  0.42117566  0.98011671  0.35731149    -0.59900
O801        O  0.36789612  0.93075943  0.35246623    -0.50800
C802        C  0.34236892  0.00179692  0.38830184     0.71200
O803        O  0.36588305  0.53173402  0.38000273    -0.45600
C804        C  0.27199530  0.03782166  0.35366121     0.75900
O805        O  0.37821253  0.03928284  0.32860811    -0.57500
O806        O  0.27720770  0.99562486  0.35099914    -0.47600
O807        O  0.33622409  0.98028206  0.32451829    -0.53900
C808        C  0.40885949  0.93884543  0.35657960     0.86100
O809        O  0.32417968  0.97169442  0.37835733    -0.55800
O810        O  0.30744419  0.56220745  0.35447958    -0.59100
In811      In  0.11913683  0.69989009  0.35045046     1.36900
C812        C  0.11302000  0.68993184  0.38611318     0.78600
O813        O  0.16747136  0.64271340  0.35136560    -0.59900
O814        O  0.19186369  0.71118704  0.34859791    -0.50800
C815        C  0.09995036  0.69390804  0.31544533     0.71200
O816        O  0.08191463  0.66676918  0.32688707    -0.45600
C817        C  0.07371866  0.77262538  0.35483906     0.75900
O818        O  0.09117132  0.66370775  0.37537536    -0.57500
O819        O  0.11614884  0.77289576  0.35233182    -0.47600
O820        O  0.13737384  0.71951516  0.37849986    -0.53900
C821        C  0.20082023  0.66972321  0.35083869     0.86100
O822        O  0.12882942  0.72099328  0.32190518    -0.55800
O823        O  0.05354997  0.73482353  0.35391884    -0.59100
In824      In  0.07861595  0.98044090  0.36992798     1.36900
C825        C  0.06423348  0.98982627  0.40500759     0.78600
O826        O  0.02709887  0.92733985  0.36858179    -0.59900
O827        O  0.09779092  0.90933950  0.37057969    -0.50800
C828        C  0.06401391  0.98036443  0.33463778     0.71200
O829        O  0.03587482  0.99946222  0.34542265    -0.45600
C830        C  0.14920296  0.03037421  0.36658707     0.75900
O831        O  0.03931742  0.51074154  0.39352322    -0.57500
O832        O  0.15110181  0.98837514  0.36967005    -0.47600
O833        O  0.09482992  0.96516433  0.39836481    -0.53900
C834        C  0.05712315  0.89684582  0.36851800     0.86100
O835        O  0.09904797  0.96419271  0.34194333    -0.55800
O836        O  0.11035862  0.54861191  0.36642503    -0.59100
C837        C  0.30061287  0.94378811  0.19097220     0.87500
C838        C  0.33866075  0.95311300  0.20469313    -0.52800
C839        C  0.33064426  0.93588782  0.22171241     0.10400
C840        C  0.28282675  0.91206124  0.22340837     0.21300
C841        C  0.29392643  0.89282848  0.19130654    -0.53500
C842        C  0.28608371  0.87497762  0.20827934     0.10500
C843        C  0.25778769  0.96255490  0.19933025    -0.53000
C844        C  0.24566807  0.94655459  0.21632817     0.11100
H845        H  0.36921609  0.97176079  0.20128147     0.15600
H846        H  0.27579748  0.89908511  0.23729928     0.01300
H847        H  0.29699458  0.87297373  0.17894955     0.15900
H848        H  0.23679343  0.98426065  0.19095721     0.15700
C849        C  0.30692516  0.74502963  0.20521730     0.87500
C850        C  0.26160388  0.73203101  0.21379842    -0.52800
C851        C  0.24096264  0.76581534  0.22361355     0.10400
C852        C  0.27833073  0.80158077  0.22971476     0.21300
C853        C  0.30270202  0.79441329  0.19856285    -0.53500
C854        C  0.28865363  0.82491324  0.21154780     0.10500
C855        C  0.33914341  0.74748138  0.22107706    -0.53000
C856        C  0.32554959  0.77664654  0.23432553     0.11100
H857        H  0.24326398  0.70263482  0.20881092     0.15600
H858        H  0.26653526  0.82450593  0.24067080     0.01300
H859        H  0.31200076  0.80362540  0.18475334     0.15900
H860        H  0.37079373  0.72875783  0.22165445     0.15700
C861        C  0.13032127  0.97937102  0.20603302     0.87500
C862        C  0.17618957  0.99207820  0.21418482    -0.52800
C863        C  0.19733082  0.95816896  0.22378778     0.10400
C864        C  0.16046809  0.92208582  0.23006504     0.21300
C865        C  0.13421370  0.93005964  0.19918434    -0.53500
C866        C  0.14901179  0.89921706  0.21198508     0.10500
C867        C  0.09920612  0.97634013  0.22226083    -0.53000
C868        C  0.11352819  0.94654108  0.23516568     0.11100
H869        H  0.19417531  0.02168319  0.20916625     0.15600
H870        H  0.17291011  0.89886236  0.24080969     0.01300
H871        H  0.12387718  0.92113531  0.18547201     0.15900
H872        H  0.06735953  0.99463827  0.22319545     0.15700
C873        C  0.13686986  0.78079031  0.19119081     0.87500
C874        C  0.09942907  0.77016312  0.20497045    -0.52800
C875        C  0.10760981  0.78653010  0.22206875     0.10400
C876        C  0.15501204  0.81143334  0.22371809     0.21300
C877        C  0.14273744  0.83172960  0.19176240    -0.53500
C878        C  0.15091907  0.84909962  0.20873894     0.10500
C879        C  0.18027163  0.76241212  0.19919922    -0.53000
C880        C  0.19254605  0.77777843  0.21628426     0.11100
H881        H  0.06921734  0.75095750  0.20156013     0.15600
H882        H  0.16213291  0.82402879  0.23765841     0.01300
H883        H  0.13932866  0.85193552  0.17950900     0.15900
H884        H  0.20135225  0.74136459  0.19058839     0.15700
In885      In  0.34435911  0.71661044  0.11998195     1.36900
C886        C  0.34455085  0.71414447  0.08428224     0.78600
O887        O  0.27461855  0.74352405  0.11739055    -0.59900
O888        O  0.33220177  0.78852722  0.12074426    -0.50800
C889        C  0.33406716  0.70453987  0.15504438     0.71200
O890        O  0.31570687  0.67738505  0.14368306    -0.45600
C891        C  0.42450492  0.68416881  0.11819227     0.75900
O892        O  0.32165631  0.68541498  0.09354392    -0.57500
O893        O  0.41708403  0.72578188  0.12121977    -0.47600
O894        O  0.36550982  0.74401057  0.09334381    -0.53900
C895        C  0.29015269  0.78364000  0.11785478     0.86100
O896        O  0.35764362  0.73613068  0.14829889    -0.55800
O897        O  0.39038563  0.65806447  0.11732300    -0.59100
In898      In  0.11621962  0.75070745  0.10140632     1.36900
C899        C  0.12678348  0.73432583  0.06651109     0.78600
O900        O  0.08669354  0.68250626  0.10609454    -0.59900
O901        O  0.04355068  0.74046127  0.10117325    -0.50800
C902        C  0.12475564  0.75063496  0.13693756     0.71200
O903        O  0.15350129  0.73007532  0.12686203    -0.45600
C904        C  0.14562223  0.83229341  0.10294334     0.75900
O905        O  0.15239569  0.71529214  0.07824514    -0.57500
O906        O  0.10404283  0.82351268  0.10051605    -0.47600
O907        O  0.09866206  0.76252847  0.07273286    -0.53900
C908        C  0.04705844  0.69882918  0.10511519     0.86100
O909        O  0.09230161  0.76973835  0.12875821    -0.55800
O910        O  0.17283637  0.79913257  0.10275911    -0.59100
In911      In  0.08094156  0.02214564  0.12183252     1.36900
C912        C  0.09547310  0.02915213  0.15707590     0.78600
O913        O  0.03272866  0.57930310  0.12074584    -0.59900
O914        O  0.00859465  0.01020445  0.12221453    -0.50800
C915        C  0.07834057  0.52566382  0.08594604     0.71200
O916        O  0.09788420  0.55702431  0.09511601    -0.45600
C917        C  0.13334447  0.95402745  0.11856591     0.75900
O918        O  0.11539722  0.55579606  0.14589235    -0.57500
O919        O  0.09195509  0.95029737  0.12285319    -0.47600
O920        O  0.06708622  0.00211757  0.15016456    -0.53900
C921        C  0.99971147  0.55174136  0.12018920     0.86100
O922        O  0.06238604  0.99311049  0.09516206    -0.55800
O923        O  0.14970462  0.99377151  0.11735542    -0.59100
In924      In  0.31010688  0.98226810  0.10105843     1.36900
C925        C  0.29951115  0.49562764  0.06599409     0.78600
O926        O  0.33848944  0.55084436  0.10537251    -0.59900
O927        O  0.38257724  0.99328322  0.10103792    -0.50800
C928        C  0.30734667  0.97839545  0.13677986     0.71200
O929        O  0.27806110  0.50130528  0.12789581    -0.45600
C930        C  0.27530628  0.90352088  0.10284443     0.75900
O931        O  0.27423823  0.51581489  0.07754415    -0.57500
O932        O  0.31702672  0.90950663  0.09948115    -0.47600
O933        O  0.32802437  0.96823989  0.07250850    -0.53900
C934        C  0.37837866  0.53480420  0.10493276     0.86100
O935        O  0.33749021  0.95884988  0.12737014    -0.55800
O936        O  0.25014672  0.93835889  0.10341056    -0.59100
C937        C  0.07989566  0.70114546  0.01738443     0.87500
C938        C  0.07771283  0.73315509  0.00140793    -0.52800
C939        C  0.04792034  0.71993558  0.98830354     0.10400
C940        C  0.02245116  0.67320295  0.99306199     0.21300
C941        C  0.03036692  0.69782523  0.02416123    -0.53500
C942        C  0.99940872  0.68445839  0.01116264     0.10500
C943        C  0.09196066  0.65558482  0.00886071    -0.53000
C944        C  0.05768814  0.63538064  0.99917367     0.11100
H945        H  0.09697519  0.76449068  0.00068320     0.15600
H946        H  0.99937228  0.66159268  0.98213133     0.01300
H947        H  0.02138450  0.70751511  0.03794711     0.15900
H948        H  0.12114125  0.63684119  0.01379120     0.15700
C949        C  0.37960012  0.70116667  0.03056923     0.87500
C950        C  0.36098402  0.65740597  0.02276137    -0.52800
C951        C  0.37763055  0.64365026  0.00604531     0.10400
C952        C  0.41245109  0.68017403  0.99868446     0.21300
C953        C  0.43061635  0.69445573  0.03071152    -0.53500
C954        C  0.44905666  0.68443417  0.01404103     0.10500
C955        C  0.37094259  0.73780279  0.01628551    -0.53000
C956        C  0.38859692  0.72818883  0.99955074     0.11100
H957        H  0.33881234  0.63729226  0.03128463     0.15600
H958        H  0.42574490  0.67194637  0.98496350     0.01300
H959        H  0.45006483  0.69882103  0.04311629     0.15900
H960        H  0.35222686  0.76865986  0.01910984     0.15700
C961        C  0.34339116  0.52764233  0.01644640     0.87500
C962        C  0.34559643  0.49694708  0.00003788    -0.52800
C963        C  0.37587589  0.51080627  0.98720574     0.10400
C964        C  0.40126297  0.55730795  0.99257324     0.21300
C965        C  0.39268229  0.53022577  0.02332102    -0.53500
C966        C  0.42380027  0.54488870  0.01066538     0.10500
C967        C  0.33179862  0.57413792  0.00867860    -0.53000
C968        C  0.36585172  0.59481716  0.99899319     0.11100
H969        H  0.32656394  0.96549195  0.99894228     0.15600
H970        H  0.42477120  0.56962046  0.98190079     0.01300
H971        H  0.40143106  0.51924438  0.03697592     0.15900
H972        H  0.30254033  0.59242042  0.01380319     0.15700
C973        C  0.04210600  0.53168579  0.03177405     0.87500
C974        C  0.06049056  0.57496998  0.02365959    -0.52800
C975        C  0.04523473  0.58716668  0.00657473     0.10400
C976        C  0.01144673  0.54976709  0.99917555     0.21300
C977        C  0.99106898  0.53760406  0.03115564    -0.53500
C978        C  0.97382610  0.54591342  0.01411405     0.10500
C979        C  0.05246830  0.49410102  0.01795332    -0.53000
C980        C  0.03590440  0.50226845  0.00083498     0.11100
H981        H  0.08160410  0.59617225  0.03223160     0.15600
H982        H  0.99892089  0.55690765  0.98523013     0.01300
H983        H  0.97076225  0.53431253  0.04339429     0.15900
H984        H  0.07154210  0.46384341  0.02135442     0.15700
C985        C  0.33654913  0.93571395  0.51781503     0.87500
C986        C  0.33375833  0.96751935  0.50177960    -0.52800
C987        C  0.30456881  0.95344422  0.48863158     0.10400
C988        C  0.28054555  0.90601755  0.49325288     0.21300
C989        C  0.28710322  0.93106430  0.52440864    -0.53500
C990        C  0.25689808  0.91673159  0.51126800     0.10500
C991        C  0.34985406  0.89021913  0.50956112    -0.53000
C992        C  0.31682729  0.86929593  0.49941795     0.11100
H993        H  0.35211172  0.99939963  0.50107013     0.15600
H994        H  0.25795903  0.89378701  0.48225694     0.01300
H995        H  0.27752351  0.94103722  0.53809528     0.15900
H996        H  0.37949398  0.87243946  0.51461521     0.15700
C997        C  0.30228207  0.76196342  0.53009585     0.87500
C998        C  0.32201019  0.80545825  0.52252605    -0.52800
C999        C  0.30608634  0.81977310  0.50577136     0.10400
C1000       C  0.27145367  0.78364772  0.49797365     0.21300
C1001       C  0.25155731  0.76953800  0.52980159    -0.53500
C1002       C  0.23408660  0.77983317  0.51299710     0.10500
C1003       C  0.31126540  0.72534159  0.51591833    -0.53000
C1004       C  0.29484523  0.73530202  0.49904007     0.11100
H1005       H  0.34387747  0.82522241  0.53131971     0.15600
H1006       H  0.25883946  0.79218143  0.48416944     0.01300
H1007       H  0.23169766  0.76562130  0.54211377     0.15900
H1008       H  0.32937969  0.69421855  0.51891392     0.15700
C1009       C  0.13695361  0.93095647  0.53042708     0.87500
C1010       C  0.11884647  0.88793328  0.52200022    -0.52800
C1011       C  0.13579147  0.87584846  0.50510500     0.10400
C1012       C  0.17037809  0.91312705  0.49831822     0.21300
C1013       C  0.18788110  0.92456869  0.53057623    -0.53500
C1014       C  0.20660017  0.91623095  0.51385156     0.10500
C1015       C  0.12802650  0.96872064  0.51662969    -0.53000
C1016       C  0.14595067  0.96071818  0.49977964     0.11100
H1017       H  0.09681277  0.86689051  0.53026772     0.15600
H1018       H  0.18402201  0.90617977  0.48453336     0.01300
H1019       H  0.20708971  0.92756524  0.54310737     0.15900
H1020       H  0.10879816  0.99902458  0.51983845     0.12500
C1021       C  0.10379416  0.76238899  0.51601059     0.87500
C1022       C  0.10695708  0.72935088  0.50036393    -0.52800
C1023       C  0.13651053  0.74290886  0.48712185     0.10400
C1024       C  0.16099988  0.79036868  0.49162493     0.21300
C1025       C  0.15300641  0.76709457  0.52280228    -0.53500
C1026       C  0.18393645  0.78016854  0.50983612     0.10500
C1027       C  0.09057993  0.80683410  0.50689392    -0.53000
C1028       C  0.12472973  0.82762044  0.49743592     0.11100
H1029       H  0.08846352  0.69753850  0.49988883     0.15600
H1030       H  0.18420684  0.80200972  0.48072497     0.01300
H1031       H  0.16177221  0.75813818  0.53668494     0.15900
H1032       H  0.06054337  0.82491661  0.51141437     0.15700
C1033       C  0.38675282  0.72344050  0.70441371     0.87500
C1034       C  0.43146283  0.73754656  0.71311945    -0.52800
C1035       C  0.45275006  0.70437058  0.72301282     0.10400
C1036       C  0.41622018  0.66750122  0.72897018     0.21300
C1037       C  0.39212856  0.67423147  0.69779581    -0.53500
C1038       C  0.40610997  0.64393440  0.71086294     0.10500
C1039       C  0.35430012  0.72021487  0.72018338    -0.53000
C1040       C  0.36847516  0.69124654  0.73342399     0.11100
H1041       H  0.44888166  0.76776212  0.70835574     0.15600
H1042       H  0.42830596  0.64476849  0.73994951     0.01300
H1043       H  0.38259745  0.66488440  0.68403892     0.15900
H1044       H  0.32229427  0.73831988  0.72074197     0.15700
C1045       C  0.05860265  0.69327174  0.69136468     0.87500
C1046       C  0.09553789  0.70299934  0.70540581    -0.52800
C1047       C  0.08689678  0.68564354  0.72229509     0.10400
C1048       C  0.03935310  0.66058037  0.72351044     0.21300
C1049       C  0.05262327  0.64222821  0.69143829    -0.53500
C1050       C  0.04349051  0.62384989  0.70822697     0.10500
C1051       C  0.01498147  0.71112632  0.69935204    -0.53000
C1052       C  0.50197061  0.69439370  0.71615814     0.11100
H1053       H  0.12590643  0.72230199  0.70230457     0.15600
H1054       H  0.03179911  0.64711562  0.73728685     0.01300
H1055       H  0.05615854  0.62283241  0.67898631     0.15900
H1056       H  0.49420570  0.73255985  0.69077838     0.15700
C1057       C  0.38958966  0.52502588  0.69092140     0.87500
C1058       C  0.35164602  0.01655441  0.70476663    -0.52800
C1059       C  0.36061278  0.53325532  0.72174461     0.10400
C1060       C  0.40895456  0.55681639  0.72317655     0.21300
C1061       C  0.39720018  0.57576840  0.69112921    -0.53500
C1062       C  0.40613584  0.59371697  0.70795936     0.10500
C1063       C  0.43210989  0.00565401  0.69913454    -0.53000
C1064       C  0.44572081  0.52217548  0.71587322     0.11100
H1065       H  0.32073654  0.99834483  0.70148872     0.15600
H1066       H  0.41658065  0.56989794  0.73699917     0.01300
H1067       H  0.39452483  0.59536077  0.67869492     0.15900
H1068       H  0.45227863  0.98358527  0.69060999     0.15700
C1069       C  0.06324211  0.49403639  0.70456309     0.87500
C1070       C  0.01725441  0.98040452  0.71221007    -0.52800
C1071       C  0.49541150  0.51270666  0.72234611     0.10400
C1072       C  0.03139613  0.54948139  0.72893167     0.21300
C1073       C  0.05883832  0.54346823  0.69811341    -0.53500
C1074       C  0.04349573  0.57347683  0.71104592     0.10500
C1075       C  0.09361144  0.99692195  0.72098055    -0.53000
C1076       C  0.07841931  0.52538456  0.73416796     0.11100
H1077       H  0.50047893  0.95030264  0.70705490     0.15600
H1078       H  0.01829992  0.57207858  0.73976637     0.01300
H1079       H  0.06993763  0.55326032  0.68458765     0.15900
H1080       H  0.12571786  0.97909513  0.72191854     0.15700
In1081     In  0.34955580  0.75338709  0.61895830     1.36900
C1082       C  0.36107311  0.76237772  0.65395576     0.78600
O1083       O  0.31001398  0.81654076  0.61737093    -0.59900
O1084       O  0.27704220  0.75162988  0.62216449    -0.50800
C1085       C  0.33851750  0.75143577  0.58374875     0.71200
O1086       O  0.36367369  0.78124715  0.59132522    -0.45600
C1087       C  0.40756007  0.69044962  0.61401929     0.75900
O1088       O  0.38052299  0.78934418  0.64280514    -0.57500
O1089       O  0.36700048  0.68249372  0.61881085    -0.47600
O1090       O  0.33671047  0.73153219  0.64701401    -0.53900
C1091       C  0.27359560  0.79390458  0.61925154     0.86100
O1092       O  0.31968489  0.72285551  0.59425786    -0.55800
O1093       O  0.42007150  0.73166958  0.61324172    -0.59100
In1094     In  0.38755442  0.99266143  0.60069314     1.36900
C1095       C  0.38687282  0.99604529  0.63645079     0.78600
O1096       O  0.44914704  0.53606137  0.60158191    -0.59900
O1097       O  0.38268560  0.56499300  0.59696004    -0.50800
C1098       C  0.38989818  0.97334006  0.56597582     0.71200
O1099       O  0.41742571  0.95425529  0.57701863    -0.45600
C1100       C  0.31916776  0.94140917  0.60493846     0.75900
O1101       O  0.41686691  0.97300967  0.62793364    -0.57500
O1102       O  0.31564213  0.48336953  0.60141911    -0.47600
O1103       O  0.35894466  0.51727113  0.62660230    -0.53900
C1104       C  0.42453106  0.57111751  0.59980585     0.86100
O1105       O  0.36441689  0.00339734  0.57268666    -0.55800
O1106       O  0.35873336  0.92444721  0.60518882    -0.59100
In1107     In  0.11572866  0.95988954  0.61971168     1.36900
C1108       C  0.11010096  0.94615555  0.58447947     0.78600
O1109       O  0.04971423  0.49230581  0.61475383    -0.59900
O1110       O  0.11008988  0.53280020  0.61872701    -0.50800
C1111       C  0.09917354  0.95171369  0.65484253     0.71200
O1112       O  0.08155894  0.92449725  0.64336234    -0.45600
C1113       C  0.19695490  0.92942281  0.61848742     0.75900
O1114       O  0.08798405  0.92128064  0.59562944    -0.57500
O1115       O  0.18877001  0.47133517  0.61962748    -0.47600
O1116       O  0.13417820  0.97690347  0.59148152    -0.53900
C1117       C  0.06833138  0.53094560  0.61484372     0.86100
O1118       O  0.12562467  0.48088003  0.64835425    -0.55800
O1119       O  0.16353559  0.90265809  0.61951192    -0.59100
In1120     In  0.08274838  0.73568322  0.60223448     1.36900
C1121       C  0.06864628  0.74536757  0.56712521     0.78600
O1122       O  0.11251979  0.80414071  0.60662021    -0.59900
O1123       O  0.15514049  0.74527818  0.60292878    -0.50800
C1124       C  0.07287089  0.73071236  0.63775469     0.71200
O1125       O  0.04572107  0.75444246  0.62809329    -0.45600
C1126       C  0.05449006  0.65439817  0.60192595     0.75900
O1127       O  0.04313780  0.76531967  0.57865793    -0.57500
O1128       O  0.09599657  0.66400396  0.59982008    -0.47600
O1129       O  0.10087689  0.72260584  0.57372522    -0.53900
C1130       C  0.15192770  0.78701033  0.60656658     0.86100
O1131       O  0.10444784  0.71117971  0.62921501    -0.55800
O1132       O  0.02669389  0.68700450  0.60301116    -0.59100
C1133       C  0.30757496  0.49123689  0.76596466     0.87500
C1134       C  0.34077072  0.49447143  0.75039223    -0.52800
C1135       C  0.32801650  0.52466804  0.73732645     0.10400
C1136       C  0.28078201  0.54951726  0.74182154     0.21300
C1137       C  0.30354845  0.54050129  0.77305767    -0.53500
C1138       C  0.29102568  0.57196829  0.76012014     0.10500
C1139       C  0.26290394  0.47900027  0.75677789    -0.53000
C1140       C  0.24285465  0.51370493  0.74743586     0.11100
H1141       H  0.37203731  0.97554314  0.74983772     0.15600
H1142       H  0.26956026  0.57296309  0.73095126     0.01300
H1143       H  0.31237487  0.54893204  0.78698661     0.15900
H1144       H  0.24384297  0.94947695  0.76124621     0.15700
C1145       C  0.14026867  0.52833568  0.78070188     0.87500
C1146       C  0.18281491  0.00963603  0.77222580    -0.52800
C1147       C  0.19489657  0.52551513  0.75517829     0.10400
C1148       C  0.15775266  0.55987724  0.74817953     0.21300
C1149       C  0.14704221  0.57908197  0.78030381    -0.53500
C1150       C  0.15510308  0.59689310  0.76341675     0.10500
C1151       C  0.10190956  0.01898418  0.76698031    -0.53000
C1152       C  0.11008731  0.53554798  0.74989830     0.11100
H1153       H  0.20393580  0.98784001  0.78056593     0.15600
H1154       H  0.16467579  0.57290982  0.73428549     0.01300
H1155       H  0.14479489  0.59884994  0.79271505     0.15900
H1156       H  0.07158258  0.00000007  0.77041910     0.15700
C1157       C  0.13718285  0.72698852  0.76715494     0.87500
C1158       C  0.10524210  0.72442162  0.75110569    -0.52800
C1159       C  0.11899101  0.69498048  0.73793403     0.10400
C1160       C  0.16609640  0.67043985  0.74257716     0.21300
C1161       C  0.14128640  0.67756030  0.77369465    -0.53500
C1162       C  0.15510616  0.64708863  0.76059885     0.10500
C1163       C  0.18274707  0.73982689  0.75874115    -0.53000
C1164       C  0.20332780  0.70627762  0.74873134     0.11100
H1165       H  0.07348875  0.74293287  0.75043644     0.15600
H1166       H  0.17799154  0.64748216  0.73164045     0.01300
H1167       H  0.13125517  0.66826640  0.78740145     0.15900
H1168       H  0.20090996  0.76932214  0.76370986     0.15700
C1169       C  0.30931079  0.69094320  0.78009096     0.87500
C1170       C  0.26619371  0.71060939  0.77224754    -0.52800
C1171       C  0.25231381  0.69458172  0.75547792     0.10400
C1172       C  0.28833949  0.65944183  0.74800888     0.21300
C1173       C  0.30159765  0.64007241  0.77997975    -0.53500
C1174       C  0.29161452  0.62227539  0.76320330     0.10500
C1175       C  0.34635869  0.69950541  0.76600592    -0.53000
C1176       C  0.33674192  0.68265522  0.74915321     0.11100
H1177       H  0.24636725  0.73288105  0.78085667     0.15600
H1178       H  0.28010993  0.64671400  0.73420085     0.01300
H1179       H  0.30533300  0.62022756  0.79231662     0.15900
H1180       H  0.37742591  0.71773472  0.76903209     0.15700
C1181       C  0.34959758  0.77603301  0.95418979     0.87500
C1182       C  0.33510800  0.82127024  0.96237342    -0.52800
C1183       C  0.36761810  0.84313622  0.97251560     0.10400
C1184       C  0.40431140  0.80705539  0.97895807     0.21300
C1185       C  0.39908016  0.78135670  0.94788976    -0.53500
C1186       C  0.42869760  0.79624360  0.96107374     0.10500
C1187       C  0.35221266  0.74452372  0.97028218    -0.53000
C1188       C  0.38046206  0.75946002  0.98362346     0.11100
H1189       H  0.30509718  0.83826700  0.95724093     0.15600
H1190       H  0.42652989  0.81973829  0.99000409     0.01300
H1191       H  0.40915331  0.77116256  0.93429312     0.15900
H1192       H  0.33426834  0.71240677  0.97096183     0.15700
C1193       C  0.38003637  0.94850666  0.94075552     0.87500
C1194       C  0.36936705  0.98599316  0.95452330    -0.52800
C1195       C  0.38594033  0.97814567  0.97164658     0.10400
C1196       C  0.41080893  0.93051675  0.97333256     0.21300
C1197       C  0.43112077  0.94278771  0.94140312    -0.53500
C1198       C  0.44848852  0.93434913  0.95842359     0.10500
C1199       C  0.36178776  0.90515077  0.94882598    -0.53000
C1200       C  0.37753456  0.89260720  0.96580000     0.11100
H1201       H  0.35016587  0.01613612  0.95105378     0.15600
H1202       H  0.42345173  0.92341025  0.98726714     0.01300
H1203       H  0.45130448  0.94598811  0.92913385     0.15900
H1204       H  0.34100304  0.88396762  0.94012781     0.15700
C1205       C  0.07863023  0.95414906  0.95591472     0.87500
C1206       C  0.09213287  0.90878107  0.96416989    -0.52800
C1207       C  0.05877911  0.88703804  0.97385334     0.10400
C1208       C  0.02172879  0.92328423  0.97993492     0.21300
C1209       C  0.02952892  0.94949524  0.94903124    -0.53500
C1210       C  0.99871515  0.93470945  0.96177216     0.10500
C1211       C  0.07518870  0.98539757  0.97210221    -0.53000
C1212       C  0.04577837  0.97052176  0.98510285     0.11100
H1213       H  0.12254550  0.89173526  0.95945757     0.15600
H1214       H  0.99850110  0.91057393  0.99064465     0.01300
H1215       H  0.02056949  0.95996185  0.93534191     0.15900
H1216       H  0.09326552  0.01739310  0.97303860     0.15700
C1217       C  0.04872584  0.78174241  0.94190840     0.87500
C1218       C  0.05753301  0.74410347  0.95580385    -0.52800
C1219       C  0.03958973  0.75237252  0.97265960     0.10400
C1220       C  0.01518683  0.80020012  0.97398455     0.21300
C1221       C  0.99781977  0.78828065  0.94178895    -0.53500
C1222       C  0.97902553  0.79681996  0.95850465     0.10500
C1223       C  0.06694764  0.82480708  0.95027627    -0.53000
C1224       C  0.04954333  0.83763120  0.96698298     0.11100
H1225       H  0.07655309  0.71364477  0.95264222     0.15600
H1226       H  0.00138108  0.80743775  0.98772433     0.01300
H1227       H  0.97874371  0.78535253  0.92922779     0.15900
H1228       H  0.08895243  0.84562974  0.94190270     0.15700
In1229     In  0.11835778  0.00416102  0.87117648     1.36900
C1230       C  0.12359114  0.98610598  0.90623615     0.78600
O1231       O  0.17615697  0.55156104  0.87246445    -0.59900
O1232       O  0.10745384  0.57648678  0.87393017    -0.50800
C1233       C  0.13037813  0.00383178  0.83555976     0.71200
O1234       O  0.15651961  0.98111285  0.84602994    -0.45600
C1235       C  0.04842178  0.95527446  0.86488751     0.75900
O1236       O  0.15226225  0.96938790  0.89508732    -0.57500
O1237       O  0.04575731  0.49718238  0.86836213    -0.47600
O1238       O  0.09368811  0.01134318  0.89931612    -0.53900
C1239       C  0.14939414  0.58505891  0.87296760     0.86100
O1240       O  0.10030180  0.52669128  0.84346683    -0.55800
O1241       O  0.08726327  0.93713152  0.86593585    -0.59100
In1242     In  0.34250748  0.96153953  0.85068490     1.36900
C1243       C  0.32998298  0.94771107  0.81577101     0.78600
O1244       O  0.27361333  0.49120209  0.85463963    -0.59900
O1245       O  0.33196187  0.53381758  0.84977316    -0.50800
C1246       C  0.34591879  0.95565078  0.88646453     0.71200
O1247       O  0.32345629  0.92667775  0.87714530    -0.45600
C1248       C  0.42548819  0.93665591  0.85062120     0.75900
O1249       O  0.31238524  0.92068049  0.82740409    -0.57500
O1250       O  0.41397466  0.47760461  0.84842559    -0.47600
O1251       O  0.35309870  0.47985399  0.82223772    -0.53900
C1252       C  0.29026512  0.53076211  0.85348582     0.86100
O1253       O  0.36508493  0.98661140  0.87743803    -0.55800
O1254       O  0.39400797  0.90750422  0.85155111    -0.59100
In1255     In  0.08381756  0.77262708  0.85182219     1.36900
C1256       C  0.10218873  0.77567426  0.81662733     0.78600
O1257       O  0.15203504  0.74601401  0.85828171    -0.59900
O1258       O  0.09534099  0.70068733  0.85331150    -0.50800
C1259       C  0.08021761  0.77601489  0.88756740     0.71200
O1260       O  0.10344621  0.80499823  0.87851866    -0.45600
C1261       C  0.00402680  0.80662210  0.85240526     0.75900
O1262       O  0.11961300  0.80442673  0.82760240    -0.57500
O1263       O  0.01112630  0.76482842  0.84974876    -0.47600
O1264       O  0.07470523  0.74786161  0.82367289    -0.53900
C1265       C  0.13622503  0.70596192  0.85822344     0.86100
O1266       O  0.05919183  0.74663845  0.87824811    -0.55800
O1267       O  0.03842980  0.83250809  0.85288852    -0.59100
In1268     In  0.31827197  0.73117778  0.86920582     1.36900
C1269       C  0.30767860  0.74310029  0.90425416     0.78600
O1270       O  0.25728995  0.68884464  0.86581803    -0.59900
O1271       O  0.32282647  0.65791921  0.87066856    -0.50800
C1272       C  0.31930922  0.72706476  0.83371908     0.71200
O1273       O  0.28857064  0.74932718  0.84213141    -0.45600
C1274       C  0.38369587  0.78771616  0.86635841     0.75900
O1275       O  0.28254676  0.76394904  0.89284052    -0.57500
O1276       O  0.38996791  0.74613774  0.86998627    -0.47600
O1277       O  0.33584795  0.71537319  0.89759366    -0.53900
C1278       C  0.28111367  0.65311488  0.86691509     0.86100
O1279       O  0.34947939  0.70859054  0.84352113    -0.55800
O1280       O  0.34298663  0.80153021  0.86544809    -0.59100
C1281       C  0.42147792  0.81519381  0.86179152    -0.12300
C1282       C  0.45944173  0.82120492  0.85661476    -0.13800
C1283       C  0.26412291  0.60943519  0.86254766    -0.12300
C1284       C  0.26608625  0.57079114  0.85773745    -0.13800
C1285       C  0.16394441  0.63028068  0.87039544    -0.12300
C1286       C  0.16043842  0.66818499  0.86492323    -0.13800
C1287       C  0.47148375  0.92600413  0.85385411    -0.12300
C1288       C  0.50944621  0.93155383  0.85898131    -0.13800
C1289       C  0.07632615  0.77592365  0.90720531    -0.12300
C1290       C  0.06676658  0.77504639  0.92327970    -0.13800
C1291       C  0.10840556  0.96836967  0.94075813    -0.12300
C1292       C  0.12210895  0.97619131  0.92550225    -0.13800
C1293       C  0.36266265  0.95477754  0.92196285    -0.12300
C1294       C  0.35161150  0.95405796  0.90602893    -0.13800
C1295       C  0.32102475  0.76116466  0.93880361    -0.12300
C1296       C  0.30815352  0.75238811  0.92354089    -0.13800
C1297       C  0.31931299  0.72041646  0.81429358    -0.12300
C1298       C  0.31815565  0.70886365  0.79849588    -0.13800
C1299       C  0.11415510  0.77149666  0.79752538    -0.12300
C1300       C  0.12337244  0.75666385  0.78251797    -0.13800
C1301       C  0.13371385  0.00471243  0.81588430    -0.12300
C1302       C  0.13405625  0.51186144  0.79962751    -0.13800
C1303       C  0.32313559  0.94582102  0.79636573    -0.12300
C1304       C  0.31873991  0.46009528  0.78104028    -0.13800
C1305       C  0.04166606  0.60902804  0.60482947    -0.12300
C1306       C  0.04546525  0.57069132  0.60957572    -0.13800
C1307       C  0.24156412  0.91454781  0.61480944    -0.12300
C1308       C  0.27997021  0.91697085  0.60987725    -0.13800
C1309       C  0.23013812  0.81266874  0.61632385    -0.12300
C1310       C  0.19144995  0.81096374  0.61164598    -0.13800
C1311       C  0.43501937  0.65378592  0.60823877    -0.12300
C1312       C  0.44024575  0.61578346  0.60301463    -0.13800
C1313       C  0.08819799  0.95262726  0.67402817    -0.12300
C1314       C  0.07868704  0.46519901  0.68929054    -0.13800
C1315       C  0.38440897  0.99939851  0.65606691    -0.12300
C1316       C  0.38266530  0.50803686  0.67216736    -0.13800
C1317       C  0.06638623  0.71182516  0.67290064    -0.12300
C1318       C  0.06831493  0.72390571  0.65713730    -0.13800
C1319       C  0.37348250  0.75234893  0.68898627    -0.12300
C1320       C  0.36740104  0.76390938  0.67337919    -0.13800
C1321       C  0.06404685  0.74869977  0.54759952    -0.12300
C1322       C  0.07449296  0.75124997  0.53166541    -0.13800
C1323       C  0.11014222  0.94025621  0.56501956    -0.12300
C1324       C  0.11877081  0.93808093  0.54893084    -0.13800
C1325       C  0.33015787  0.75067515  0.56443573    -0.12300
C1326       C  0.31923408  0.75238695  0.54858003    -0.13800
C1327       C  0.38379230  0.96009333  0.54723752    -0.12300
C1328       C  0.36682902  0.95012342  0.53275922    -0.13800
C1329       C  0.29969849  0.50511134  0.04669519    -0.12300
C1330       C  0.31317194  0.51347075  0.03146039    -0.13800
C1331       C  0.05980029  0.52546775  0.05054224    -0.12300
C1332       C  0.07165610  0.52655285  0.06639509    -0.13800
C1333       C  0.45487021  0.56491276  0.11575900    -0.12300
C1334       C  0.41711056  0.55994970  0.11022243    -0.13800
C1335       C  0.11047600  0.71423454  0.03244150    -0.12300
C1336       C  0.12541819  0.72285622  0.04742009    -0.13800
C1337       C  0.15932988  0.87688536  0.10752513    -0.12300
C1338       C  0.15705411  0.91467750  0.11325053    -0.13800
C1339       C  0.36095373  0.71019578  0.04890955    -0.12300
C1340       C  0.34955908  0.71224108  0.06474477    -0.13800
C1341       C  0.50767690  0.67392501  0.10966984    -0.12300
C1342       C  0.46919506  0.66963011  0.11437181    -0.13800
C1343       C  0.26407205  0.82214107  0.11341410    -0.12300
C1344       C  0.25996881  0.85982183  0.10778124    -0.13800
C1345       C  0.12972073  0.76390988  0.17247784    -0.12300
C1346       C  0.12844216  0.75434680  0.15645100    -0.13800
C1347       C  0.10650705  0.02540018  0.17622588    -0.12300
C1348       C  0.11576867  0.00978128  0.19107014    -0.13800
C1349       C  0.32007628  0.71552867  0.18990286    -0.12300
C1350       C  0.32688899  0.70301960  0.17444571    -0.13800
C1351       C  0.30665161  0.97255883  0.15633555    -0.12300
C1352       C  0.30710103  0.96155539  0.17226638    -0.13800
C1353       C  0.05152648  0.81301658  0.35975246    -0.12300
C1354       C  0.04711798  0.85113190  0.36470366    -0.13800
C1355       C  0.22815803  0.05489362  0.35725642    -0.12300
C1356       C  0.18955066  0.05339894  0.36202426    -0.13800
C1357       C  0.28414887  0.66151595  0.35964289    -0.12300
C1358       C  0.24612703  0.65636757  0.35441964    -0.13800
C1359       C  0.44275206  0.86442144  0.36721930    -0.12300
C1360       C  0.43702988  0.90221840  0.36181098    -0.13800
C1361       C  0.05716221  0.97409257  0.31538053    -0.12300
C1362       C  0.05590569  0.96146576  0.29969237    -0.13800
C1363       C  0.36955096  0.00409588  0.28208420    -0.12300
C1364       C  0.36426061  0.01453074  0.29791171    -0.13800
C1365       C  0.07578600  0.71359350  0.28190176    -0.12300
C1366       C  0.08660184  0.69793853  0.29656026    -0.13800
C1367       C  0.38016631  0.76154825  0.29968389    -0.12300
C1368       C  0.38191447  0.75322163  0.31583928    -0.13800
C1369       C  0.07475831  0.49951674  0.43998832    -0.12300
C1370       C  0.06180140  0.49520306  0.42445333    -0.13800
C1371       C  0.12020495  0.68692858  0.42201439    -0.12300
C1372       C  0.11238979  0.68696862  0.40577719    -0.13800
C1373       C  0.38234247  0.71188957  0.42470798    -0.12300
C1374       C  0.36641271  0.70108574  0.43929547    -0.13800
C1375       C  0.32239771  0.50390132  0.42347151    -0.12300
C1376       C  0.33429063  0.50234618  0.40768437    -0.13800
C1377       C  0.80436423  0.01275016  0.44193659     0.87500
C1378       C  0.81277008  0.97576053  0.45605987    -0.52800
C1379       C  0.79570495  0.98526514  0.47289227     0.10400
C1380       C  0.77212335  0.03358811  0.47395257     0.21300
C1381       C  0.75348164  0.02029428  0.44193883    -0.53500
C1382       C  0.73526680  0.03006178  0.45867275     0.10500
C1383       C  0.82378372  0.05592195  0.44985046    -0.53000
C1384       C  0.80708917  0.06996987  0.46649629     0.11100
H1385       H  0.83112606  0.44481127  0.45303326     0.15600
H1386       H  0.75898075  0.04178281  0.48770860     0.01300
H1387       H  0.73396977  0.01668350  0.42951851     0.15900
H1388       H  0.84615730  0.07579600  0.44127216     0.15700
C1389       C  0.83653841  0.18605865  0.45431795     0.87500
C1390       C  0.85033272  0.14090730  0.46281356    -0.52800
C1391       C  0.81722380  0.11963592  0.47286387     0.10400
C1392       C  0.78036874  0.15602220  0.47878027     0.21300
C1393       C  0.78736158  0.18057424  0.44758493    -0.53500
C1394       C  0.75698683  0.16622024  0.46064477     0.10500
C1395       C  0.83299822  0.21807120  0.47022623    -0.53000
C1396       C  0.80387162  0.20373507  0.48334352     0.11100
H1397       H  0.88044232  0.12355891  0.45799663     0.15600
H1398       H  0.75760921  0.14375923  0.48972711     0.01300
H1399       H  0.77803480  0.19024229  0.43383910     0.15900
H1400       H  0.85100858  0.25015409  0.47092279     0.15700
C1401       C  0.63767108  0.18064363  0.44081446     0.87500
C1402       C  0.62850777  0.21864646  0.45454461    -0.52800
C1403       C  0.64570445  0.21061267  0.47156136     0.10400
C1404       C  0.67002892  0.16295898  0.47316946     0.21300
C1405       C  0.68855524  0.17395317  0.44098930    -0.53500
C1406       C  0.70673938  0.16576800  0.45782741     0.10500
C1407       C  0.61905994  0.13785244  0.44928129    -0.53000
C1408       C  0.63562528  0.12575035  0.46623763     0.11100
H1409       H  0.60961473  0.24904810  0.45118038     0.15600
H1410       H  0.68328888  0.15599048  0.48701690     0.01300
H1411       H  0.70814023  0.17657390  0.42853444     0.15900
H1412       H  0.59717260  0.11683299  0.44096056     0.15700
C1413       C  0.60473913  0.01171341  0.45527626     0.87500
C1414       C  0.59116304  0.05627558  0.46417464    -0.52800
C1415       C  0.62494422  0.07731591  0.47374241     0.10400
C1416       C  0.66143939  0.04042630  0.47968150     0.21300
C1417       C  0.65413811  0.01661841  0.44851488    -0.53500
C1418       C  0.68484284  0.03014901  0.46155760     0.10500
C1419       C  0.60783871  0.97907531  0.47099444    -0.53000
C1420       C  0.63717029  0.99290018  0.48419422     0.11100
H1421       H  0.56108329  0.07407682  0.45955030     0.15600
H1422       H  0.68432532  0.05233528  0.49063980     0.01300
H1423       H  0.66326694  0.00737589  0.43470153     0.15900
H1424       H  0.58940533  0.44718351  0.47156672     0.15700
C1425       C  0.88721754  0.27755765  0.28083068     0.87500
C1426       C  0.93014076  0.25805490  0.27281019    -0.52800
C1427       C  0.94324220  0.27383509  0.25589807     0.10400
C1428       C  0.90635240  0.30818043  0.24836862     0.21300
C1429       C  0.89443008  0.32830798  0.28026724    -0.53500
C1430       C  0.90290825  0.34568139  0.26329025     0.10500
C1431       C  0.84948275  0.26811062  0.26701550    -0.53000
C1432       C  0.85816208  0.28466890  0.24994551     0.11100
H1433       H  0.95063063  0.23653741  0.28144223     0.15600
H1434       H  0.91395923  0.32082349  0.23447217     0.01300
H1435       H  0.89136007  0.34833710  0.29256888     0.15900
H1436       H  0.81860460  0.24996879  0.27040488     0.15700
C1437       C  0.56020829  0.24352975  0.26699447     0.87500
C1438       C  0.59080476  0.24650676  0.25058948    -0.52800
C1439       C  0.57585774  0.27586841  0.23764809     0.10400
C1440       C  0.52879837  0.29982716  0.24283582     0.21300
C1441       C  0.55593957  0.29290429  0.27368744    -0.53500
C1442       C  0.54040815  0.32321106  0.26084084     0.10500
C1443       C  0.51411962  0.23023623  0.25920204    -0.53000
C1444       C  0.99255322  0.26329324  0.24923149     0.11100
H1445       H  0.62281940  0.22852926  0.24957063     0.15600
H1446       H  0.51587903  0.32265584  0.23204754     0.01300
H1447       H  0.56666703  0.30241769  0.28729219     0.15900
H1448       H  0.99669002  0.20052617  0.26440787     0.15700
C1449       C  0.88215540  0.47543951  0.26639228     0.87500
C1450       C  0.84947547  0.47271447  0.25069524    -0.52800
C1451       C  0.86321873  0.44384131  0.23732312     0.10400
C1452       C  0.91067350  0.41912198  0.24177986     0.21300
C1453       C  0.88697442  0.42614002  0.27296017    -0.53500
C1454       C  0.90074934  0.39570252  0.25994500     0.10500
C1455       C  0.92683018  0.48909393  0.25743364    -0.53000
C1456       C  0.94784148  0.45522195  0.24780947     0.11100
H1457       H  0.81765578  0.49116187  0.25025646     0.15600
H1458       H  0.92241086  0.39617408  0.23081163     0.01300
H1459       H  0.87798653  0.41700093  0.28679528     0.15900
H1460       H  0.94486883  0.51892971  0.26220993     0.15700
C1461       C  0.55027046  0.44262884  0.28115899     0.87500
C1462       C  0.50701449  0.45967773  0.27271098    -0.52800
C1463       C  0.99588233  0.44369505  0.25561261     0.10400
C1464       C  0.53427701  0.41038288  0.24867797     0.21300
C1465       C  0.54544712  0.39145619  0.28087748    -0.53500
C1466       C  0.53820350  0.37337518  0.26391070     0.10500
C1467       C  0.58811782  0.45341769  0.26757310    -0.53000
C1468       C  0.58117786  0.43602561  0.25054954     0.11100
H1469       H  0.98509145  0.48056590  0.28109530     0.15600
H1470       H  0.52807466  0.39719930  0.23475870     0.01300
H1471       H  0.54865365  0.37167778  0.29326066     0.15900
H1472       H  0.61773500  0.47343965  0.27106900     0.15700
In1473     In  0.88657431  0.24297789  0.37099526     1.36900
C1474       C  0.88784372  0.22470226  0.40589299     0.78600
O1475       O  0.94939702  0.28442635  0.36970338    -0.59900
O1476       O  0.88382502  0.31555734  0.37429149    -0.50800
C1477       C  0.88486982  0.24897238  0.33542076     0.71200
O1478       O  0.91455697  0.22468870  0.34354950    -0.45600
C1479       C  0.82144777  0.18789205  0.36537382     0.75900
O1480       O  0.91747459  0.20768992  0.39520501    -0.57500
O1481       O  0.81501828  0.22909921  0.36963016    -0.47600
O1482       O  0.86016644  0.25218954  0.39874230    -0.53900
C1483       C  0.92580255  0.32027974  0.37117396     0.86100
O1484       O  0.85747975  0.27039270  0.34558014    -0.55800
O1485       O  0.86208938  0.17351289  0.36521800    -0.59100
In1486     In  0.85005629  0.50138273  0.35272482     1.36900
C1487       C  0.85924882  0.51197840  0.31746623     0.78600
O1488       O  0.92115730  0.47993134  0.35735037    -0.59900
O1489       O  0.86785751  0.43061287  0.35248016    -0.50800
C1490       C  0.84228904  0.50173353  0.38827990     0.71200
O1491       O  0.86591635  0.03183145  0.38001956    -0.45600
C1492       C  0.77204335  0.53773864  0.35359746     0.75900
O1493       O  0.87835301  0.53914198  0.32862472    -0.57500
O1494       O  0.77724121  0.49553631  0.35094533    -0.47600
O1495       O  0.83629755  0.48019511  0.32450747    -0.53900
C1496       C  0.90880903  0.43867075  0.35662131     0.86100
O1497       O  0.82408783  0.47163578  0.37833692    -0.55800
O1498       O  0.80738898  0.06230740  0.35452104    -0.59100
In1499     In  0.61898486  0.20004818  0.35048298     1.36900
C1500       C  0.61297811  0.19012440  0.38614818     0.78600
O1501       O  0.66726334  0.14282064  0.35139896    -0.59900
O1502       O  0.69171327  0.21127667  0.34861470    -0.50800
C1503       C  0.59985889  0.19397529  0.31547729     0.71200
O1504       O  0.58174353  0.16691837  0.32693016    -0.45600
C1505       C  0.57353760  0.27278146  0.35484779     0.75900
O1506       O  0.59113145  0.16386450  0.37542391    -0.57500
O1507       O  0.61596918  0.27306074  0.35234319    -0.47600
O1508       O  0.63725396  0.21975109  0.37852065    -0.53900
C1509       C  0.70063453  0.16980282  0.35085388     0.86100
O1510       O  0.62876330  0.22104505  0.32193031    -0.55800
O1511       O  0.55338327  0.23496966  0.35393826    -0.59100
In1512     In  0.57859770  0.48055176  0.36990874     1.36900
C1513       C  0.56424836  0.48993766  0.40499504     0.78600
O1514       O  0.52697904  0.42754882  0.36851517    -0.59900
O1515       O  0.59762283  0.40942582  0.37063283    -0.50800
C1516       C  0.56406461  0.48039170  0.33461541     0.71200
O1517       O  0.53595430  0.49960494  0.34538031    -0.45600
C1518       C  0.64923900  0.53037802  0.36651910     0.75900
O1519       O  0.53929327  0.01060262  0.39353203    -0.57500
O1520       O  0.65108980  0.48837316  0.36959328    -0.47600
O1521       O  0.59483862  0.46527918  0.39834532    -0.53900
C1522       C  0.55695240  0.39700020  0.36851343     0.86100
O1523       O  0.59903809  0.46414381  0.34194136    -0.55800
O1524       O  0.61029561  0.04854374  0.36645531    -0.59100
C1525       C  0.80068523  0.44370548  0.19100336     0.87500
C1526       C  0.83871722  0.45303075  0.20472947    -0.52800
C1527       C  0.83069117  0.43578679  0.22174427     0.10400
C1528       C  0.78288029  0.41194941  0.22343334     0.21300
C1529       C  0.79401243  0.39274240  0.19133071    -0.53500
C1530       C  0.78615071  0.37487681  0.20830005     0.10500
C1531       C  0.75785173  0.46245401  0.19935809    -0.53000
C1532       C  0.74572634  0.44644368  0.21635356     0.11100
H1533       H  0.86927087  0.47168891  0.20132450     0.15600
H1534       H  0.77584440  0.39896501  0.23732242     0.01300
H1535       H  0.79709910  0.37289829  0.17897173     0.15900
H1536       H  0.73685917  0.48416142  0.19098473     0.15700
C1537       C  0.80695227  0.24492001  0.20522707     0.87500
C1538       C  0.76165185  0.23191325  0.21382403    -0.52800
C1539       C  0.74101503  0.26570406  0.22363589     0.10400
C1540       C  0.77838753  0.30147107  0.22973029     0.21300
C1541       C  0.80271691  0.29430580  0.19857375    -0.53500
C1542       C  0.78869454  0.32480710  0.21156269     0.10500
C1543       C  0.83919531  0.24737669  0.22107991    -0.53000
C1544       C  0.82561021  0.27653807  0.23433284     0.11100
H1545       H  0.74330887  0.20251010  0.20884445     0.15600
H1546       H  0.76660289  0.32439324  0.24068913     0.01300
H1547       H  0.81199401  0.30351858  0.18476195     0.15900
H1548       H  0.87084535  0.22865229  0.22165189     0.15700
C1549       C  0.63043635  0.47926813  0.20602917     0.87500
C1550       C  0.67627196  0.49198122  0.21420876    -0.52800
C1551       C  0.69739229  0.45806069  0.22381133     0.10400
C1552       C  0.66051673  0.42197402  0.23007036     0.21300
C1553       C  0.63435253  0.42995787  0.19917847    -0.53500
C1554       C  0.64910469  0.39910850  0.21198538     0.10500
C1555       C  0.59927176  0.47622653  0.22224125    -0.53000
C1556       C  0.61356729  0.44642879  0.23515172     0.11100
H1557       H  0.69426965  0.52159443  0.20920422     0.15600
H1558       H  0.67293026  0.39874866  0.24081967     0.01300
H1559       H  0.62405868  0.42103932  0.18546039     0.15900
H1560       H  0.56742685  0.49453066  0.22316513     0.15700
C1561       C  0.63696897  0.28067266  0.19119350     0.87500
C1562       C  0.59950885  0.27004198  0.20496503    -0.52800
C1563       C  0.60766303  0.28641571  0.22206509     0.10400
C1564       C  0.65506261  0.31132257  0.22372378     0.21300
C1565       C  0.64283023  0.33161318  0.19176506    -0.53500
C1566       C  0.65099243  0.34898724  0.20874245     0.10500
C1567       C  0.68035727  0.26230044  0.19921178    -0.53000
C1568       C  0.69260715  0.27766782  0.21629901     0.11100
H1569       H  0.56930674  0.25082804  0.20154851     0.15600
H1570       H  0.66216473  0.32391912  0.23766544     0.01300
H1571       H  0.63943752  0.35181606  0.17951023     0.15900
H1572       H  0.70145078  0.24125508  0.19060514     0.15700
In1573     In  0.84429024  0.21648083  0.11997459     1.36900
C1574       C  0.84450654  0.21401208  0.08427161     0.78600
O1575       O  0.77453891  0.24336813  0.11737041    -0.59900
O1576       O  0.83211655  0.28837741  0.12073316    -0.50800
C1577       C  0.83397559  0.20443495  0.15503977     0.71200
O1578       O  0.81570047  0.17721228  0.14368181    -0.45600
C1579       C  0.92448892  0.18416863  0.11821728     0.75900
O1580       O  0.82161989  0.18527201  0.09353118    -0.57500
O1581       O  0.91699886  0.22577022  0.12123889    -0.47600
O1582       O  0.86545830  0.24387575  0.09333646    -0.53900
C1583       C  0.79007057  0.28348600  0.11784183     0.86100
O1584       O  0.85745964  0.23608572  0.14828906    -0.55800
O1585       O  0.89041174  0.15801347  0.11733688    -0.59100
In1586     In  0.61626610  0.25068522  0.10141029     1.36900
C1587       C  0.62679041  0.23429391  0.06652077     0.78600
O1588       O  0.58669693  0.18250844  0.10610556    -0.59900
O1589       O  0.54359190  0.24049742  0.10119770    -0.50800
C1590       C  0.62492294  0.25057930  0.13693676     0.71200
O1591       O  0.65362859  0.23001381  0.12684525    -0.45600
C1592       C  0.64562218  0.33228605  0.10289091     0.75900
O1593       O  0.65243447  0.21528149  0.07824883    -0.57500
O1594       O  0.60403137  0.32347815  0.10051626    -0.47600
O1595       O  0.59864335  0.26246389  0.07274626    -0.53900
C1596       C  0.54707448  0.19886530  0.10514038     0.86100
O1597       O  0.59247109  0.26972561  0.12877474    -0.55800
O1598       O  0.67285161  0.29914102  0.10269264    -0.59100
In1599     In  0.58100071  0.52210561  0.12183034     1.36900
C1600       C  0.59562870  0.52906315  0.15706880     0.78600
O1601       O  0.53271929  0.07938556  0.12070295    -0.59900
O1602       O  0.50866167  0.51009845  0.12222104    -0.50800
C1603       C  0.57831360  0.02559204  0.08594536     0.71200
O1604       O  0.59789125  0.05695621  0.09510178    -0.45600
C1605       C  0.63339358  0.45400835  0.11851229     0.75900
O1606       O  0.61527988  0.05586384  0.14590152    -0.57500
O1607       O  0.59202038  0.45026032  0.12282237    -0.47600
O1608       O  0.56724042  0.50202242  0.15016291    -0.53900
C1609       C  0.49967904  0.05184796  0.12015676     0.86100
O1610       O  0.56246037  0.49313523  0.09514731    -0.55800
O1611       O  0.64974905  0.49375535  0.11731082    -0.59100
In1612     In  0.81015280  0.48214181  0.10109327     1.36900
C1613       C  0.79947351  0.99566992  0.06595673     0.78600
O1614       O  0.83845148  0.05097904  0.10533780    -0.59900
O1615       O  0.88262352  0.49315088  0.10107277    -0.50800
C1616       C  0.80740538  0.47832234  0.13681622     0.71200
O1617       O  0.77799611  0.00137823  0.12786258    -0.45600
C1618       C  0.77532968  0.40339690  0.10287870     0.75900
O1619       O  0.77421305  0.01590812  0.07749713    -0.57500
O1620       O  0.81705741  0.40936597  0.09952510    -0.47600
O1621       O  0.82807469  0.46819357  0.07253401    -0.53900
C1622       C  0.87834034  0.03493648  0.10489610     0.86100
O1623       O  0.83753308  0.45874723  0.12740867    -0.55800
O1624       O  0.75018839  0.43824623  0.10344035    -0.59100
C1625       C  0.57987107  0.20113150  0.01740535     0.87500
C1626       C  0.57770632  0.23313249  0.00142683    -0.52800
C1627       C  0.54791639  0.21991442  0.98832233     0.10400
C1628       C  0.52244804  0.17318050  0.99307778     0.21300
C1629       C  0.53033434  0.19782176  0.02417586    -0.53500
C1630       C  0.49938776  0.18445031  0.01117209     0.10500
C1631       C  0.59193839  0.15556348  0.00889137    -0.53000
C1632       C  0.55768114  0.13535824  0.99919716     0.11100
H1633       H  0.59696671  0.26446970  0.00070363     0.15600
H1634       H  0.49938052  0.16156759  0.98214378     0.01300
H1635       H  0.52133844  0.20752751  0.03795850     0.15900
H1636       H  0.62111493  0.13682373  0.01382786     0.15700
C1637       C  0.87954866  0.20111745  0.03055512     0.87500
C1638       C  0.86098376  0.15733715  0.02274567    -0.52800
C1639       C  0.87764735  0.14359946  0.00602979     0.10400
C1640       C  0.91243960  0.18015854  0.99867304     0.21300
C1641       C  0.93056990  0.19445902  0.03070287    -0.53500
C1642       C  0.94903070  0.18444434  0.01403622     0.10500
C1643       C  0.87086187  0.23774502  0.01627066    -0.53000
C1644       C  0.88853849  0.22815475  0.99953733     0.11100
H1645       H  0.83883036  0.13719992  0.03126771     0.15600
H1646       H  0.92575228  0.17194550  0.98495363     0.01300
H1647       H  0.95000538  0.19883575  0.04311038     0.15900
H1648       H  0.85212048  0.26858664  0.01909490     0.15700
C1649       C  0.84340370  0.02757727  0.01641364     0.87500
C1650       C  0.84561601  0.99689443  0.00000267    -0.52800
C1651       C  0.87590821  0.01075933  0.98717679     0.10400
C1652       C  0.90130048  0.05725333  0.99255342     0.21300
C1653       C  0.89268941  0.03014495  0.02329620    -0.53500
C1654       C  0.92382078  0.04481480  0.01064733     0.10500
C1655       C  0.83182509  0.07407914  0.00864973    -0.53000
C1656       C  0.86588746  0.09476396  0.99897228     0.11100
H1657       H  0.82654844  0.46554140  0.99898385     0.15600
H1658       H  0.92481805  0.06956930  0.98188514     0.01300
H1659       H  0.90142403  0.01915083  0.03695099     0.15900
H1660       H  0.80256193  0.09235960  0.01377116     0.15700
C1661       C  0.54211676  0.03159417  0.03176789     0.87500
C1662       C  0.56049157  0.07490228  0.02366781    -0.52800
C1663       C  0.54524129  0.08712634  0.00658505     0.10400
C1664       C  0.51147482  0.04972609  0.99917099     0.21300
C1665       C  0.49107691  0.03749471  0.03114462    -0.53500
C1666       C  0.47384446  0.04583300  0.01410335     0.10500
C1667       C  0.55250081  0.99403760  0.01793704    -0.53000
C1668       C  0.53594561  0.00223147  0.00081928     0.11100
H1669       H  0.58159191  0.09609745  0.03224820     0.15600
H1670       H  0.49895833  0.05688767  0.98522611     0.01300
H1671       H  0.47076152  0.03417175  0.04337956     0.15900
H1672       H  0.57157584  0.96377643  0.02133185     0.15700
C1673       C  0.83667064  0.43582029  0.51777787     0.87500
C1674       C  0.83386283  0.46756911  0.50172525    -0.52800
C1675       C  0.80464109  0.45345968  0.48859526     0.10400
C1676       C  0.78063028  0.40604511  0.49324386     0.21300
C1677       C  0.78723267  0.43120082  0.52438328    -0.53500
C1678       C  0.75701001  0.41682212  0.51125704     0.10500
C1679       C  0.84995603  0.39028963  0.50955047    -0.53000
C1680       C  0.81692135  0.36933978  0.49941987     0.11100
H1681       H  0.85220637  0.49945256  0.50099664     0.15600
H1682       H  0.75802474  0.39378225  0.48225990     0.01300
H1683       H  0.77767023  0.44123065  0.53806510     0.15900
H1684       H  0.87959453  0.37252169  0.51461204     0.15700
C1685       C  0.80239228  0.26205069  0.53012717     0.87500
C1686       C  0.82213068  0.30553004  0.52254320    -0.52800
C1687       C  0.80619826  0.31982036  0.50578566     0.10400
C1688       C  0.77156128  0.28368289  0.49799919     0.21300
C1689       C  0.75167053  0.26963993  0.52983200    -0.53500
C1690       C  0.73419943  0.27989970  0.51302450     0.10500
C1691       C  0.81136051  0.22539884  0.51595906    -0.53000
C1692       C  0.79493992  0.23533260  0.49907772     0.11100
H1693       H  0.84400394  0.32530726  0.53132942     0.15600
H1694       H  0.75894501  0.29219411  0.48419307     0.01300
H1695       H  0.73181108  0.26575545  0.54214595     0.15900
H1696       H  0.82946560  0.19427579  0.51896329     0.15700
C1697       C  0.63710020  0.43098857  0.53045432     0.87500
C1698       C  0.61902611  0.38793658  0.52203975    -0.52800
C1699       C  0.63592795  0.37586977  0.50513583     0.10400
C1700       C  0.67046222  0.41317335  0.49833181     0.21300
C1701       C  0.68803245  0.42466362  0.53058208    -0.53500
C1702       C  0.70671770  0.41632628  0.51385224     0.10500
C1703       C  0.62809072  0.46873213  0.51665255    -0.53000
C1704       C  0.64598074  0.46073282  0.49979415     0.11100
H1705       H  0.59703851  0.36686743  0.53031715     0.15600
H1706       H  0.68408419  0.40622895  0.48454301     0.01300
H1707       H  0.70726835  0.42767945  0.54310573     0.15900
H1708       H  0.60883897  0.49901836  0.51986509     0.12500
C1709       C  0.60391611  0.26242651  0.51604053     0.87500
C1710       C  0.60707331  0.22938641  0.50039523    -0.52800
C1711       C  0.63662447  0.24294080  0.48715256     0.10400
C1712       C  0.66111430  0.29040154  0.49165170     0.21300
C1713       C  0.65312877  0.26713177  0.52283004    -0.53500
C1714       C  0.68405298  0.28021023  0.50986275     0.10500
C1715       C  0.59070022  0.30687248  0.50692388    -0.53000
C1716       C  0.62484878  0.32765323  0.49746315     0.11100
H1717       H  0.58857688  0.19757561  0.49992110     0.15600
H1718       H  0.68431834  0.30204129  0.48075044     0.01300
H1719       H  0.66189894  0.25817432  0.53671210     0.15900
H1720       H  0.56067653  0.32496686  0.51145145     0.15700
C1721       C  0.88657504  0.22359986  0.70445976     0.87500
C1722       C  0.93120871  0.23776087  0.71321406    -0.52800
C1723       C  0.95251442  0.20456972  0.72308999     0.10400
C1724       C  0.91601883  0.16763095  0.72900769     0.21300
C1725       C  0.89205818  0.17441391  0.69782069    -0.53500
C1726       C  0.90600546  0.14409372  0.71088534     0.10500
C1727       C  0.85405342  0.22027379  0.72020211    -0.53000
C1728       C  0.86822945  0.19130027  0.73344092     0.11100
H1729       H  0.94859952  0.26802656  0.70848435     0.15600
H1730       H  0.92809481  0.14488969  0.73998584     0.01300
H1731       H  0.88260539  0.16509340  0.68405221     0.15900
H1732       H  0.82202641  0.23834323  0.72075125     0.15700
C1733       C  0.55829685  0.19361802  0.69140814     0.87500
C1734       C  0.59526801  0.20329054  0.70544116    -0.52800
C1735       C  0.58666105  0.18587745  0.72232468     0.10400
C1736       C  0.53912107  0.16081640  0.72354385     0.21300
C1737       C  0.55230270  0.14257567  0.69145687    -0.53500
C1738       C  0.54322063  0.12414077  0.70823963     0.10500
C1739       C  0.51470728  0.21145713  0.69942351    -0.53000
C1740       C  0.00173124  0.19465847  0.71622362     0.11100
H1741       H  0.62563089  0.22260178  0.70233972     0.15600
H1742       H  0.53159646  0.14730475  0.73731553     0.01300
H1743       H  0.55580010  0.12321978  0.67899300     0.15900
H1744       H  0.99391942  0.23292632  0.69086888     0.15700
C1745       C  0.88942253  0.02519411  0.69093184     0.87500
C1746       C  0.85181151  0.51637052  0.70475775    -0.52800
C1747       C  0.86046249  0.03341844  0.72175341     0.10400
C1748       C  0.90882091  0.05695935  0.72318551     0.21300
C1749       C  0.89706493  0.07593673  0.69114127    -0.53500
C1750       C  0.90601959  0.09387408  0.70797263     0.10500
C1751       C  0.93229131  0.50552189  0.69912782    -0.53000
C1752       C  0.94557047  0.02230885  0.71587430     0.11100
H1753       H  0.82091136  0.49814478  0.70148035     0.15600
H1754       H  0.91646002  0.07002311  0.73700954     0.01300
H1755       H  0.89438309  0.09553655  0.67870928     0.15900
H1756       H  0.95248665  0.48346742  0.69060739     0.15700
C1757       C  0.56313461  0.99437306  0.70451050     0.87500
C1758       C  0.51733879  0.48015213  0.71226434    -0.52800
C1759       C  0.99529412  0.01289295  0.72231667     0.10400
C1760       C  0.53123147  0.04969688  0.72891205     0.21300
C1761       C  0.55865661  0.04381437  0.69808504    -0.53500
C1762       C  0.54328139  0.07376132  0.71103449     0.10500
C1763       C  0.59371244  0.49659611  0.72103669    -0.53000
C1764       C  0.57828543  0.02564070  0.73412919     0.11100
H1765       H  0.00051559  0.45006784  0.70711634     0.15600
H1766       H  0.51811670  0.07224481  0.73975995     0.01300
H1767       H  0.56973860  0.05366255  0.68456358     0.15900
H1768       H  0.62579775  0.47873554  0.72198619     0.15700
In1769     In  0.84955283  0.25343623  0.61900536     1.36900
C1770       C  0.86102967  0.26251706  0.65400213     0.78600
O1771       O  0.81001012  0.31658093  0.61740398    -0.59900
O1772       O  0.77703368  0.25166585  0.62218534    -0.50800
C1773       C  0.83855795  0.25149945  0.58379156     0.71200
O1774       O  0.86372534  0.28128841  0.59137607    -0.45600
C1775       C  0.90750689  0.19045222  0.61407105     0.75900
O1776       O  0.88049328  0.28945745  0.64284516    -0.57500
O1777       O  0.86696143  0.18253142  0.61889085    -0.47600
O1778       O  0.83668844  0.23164700  0.64706700    -0.53900
C1779       C  0.77359106  0.29394081  0.61927171     0.86100
O1780       O  0.81969109  0.22292819  0.59429514    -0.55800
O1781       O  0.92004284  0.23166214  0.61327559    -0.59100
In1782     In  0.88771096  0.49268699  0.60065999     1.36900
C1783       C  0.88705921  0.49600546  0.63642352     0.78600
O1784       O  0.94898580  0.03604966  0.60159647    -0.59900
O1785       O  0.88252350  0.06497158  0.59697390    -0.50800
C1786       C  0.89004853  0.47346816  0.56592942     0.71200
O1787       O  0.91753312  0.45430735  0.57696782    -0.45600
C1788       C  0.81932942  0.44143637  0.60492179     0.75900
O1789       O  0.91705891  0.47300633  0.62789312    -0.57500
O1790       O  0.81548769  0.98334377  0.60143501    -0.47600
O1791       O  0.85877388  0.01730241  0.62661948    -0.53900
C1792       C  0.92436860  0.07110303  0.59981754     0.86100
O1793       O  0.86461102  0.50354771  0.57265133    -0.55800
O1794       O  0.85889276  0.42446720  0.60514431    -0.59100
In1795     In  0.61587831  0.45973268  0.61977497     1.36900
C1796       C  0.61034437  0.44601853  0.58453187     0.78600
O1797       O  0.54954864  0.99247144  0.61474771    -0.59900
O1798       O  0.60997465  0.03295059  0.61863482    -0.50800
C1799       C  0.59922792  0.45142284  0.65489865     0.71200
O1800       O  0.58169151  0.42420895  0.64339797    -0.45600
C1801       C  0.69715924  0.42939690  0.61857249     0.75900
O1802       O  0.58820423  0.42113175  0.59567042    -0.57500
O1803       O  0.68862773  0.97137594  0.61954021    -0.47600
O1804       O  0.63442030  0.47674242  0.59155073    -0.53900
C1805       C  0.56818394  0.03110340  0.61480588     0.86100
O1806       O  0.62562495  0.98109483  0.64827605    -0.55800
O1807       O  0.66377714  0.40258825  0.61959478    -0.59100
In1808     In  0.58265450  0.23584003  0.60228066     1.36900
C1809       C  0.56869934  0.24544982  0.56715828     0.78600
O1810       O  0.61251891  0.30427294  0.60662194    -0.59900
O1811       O  0.65505401  0.24531424  0.60301862    -0.50800
C1812       C  0.57259634  0.23101777  0.63779788     0.71200
O1813       O  0.54547607  0.25468500  0.62809830    -0.45600
C1814       C  0.55435977  0.15457282  0.60197136     0.75900
O1815       O  0.54319008  0.26548021  0.57866827    -0.57500
O1816       O  0.59588339  0.16415593  0.59990716    -0.47600
O1817       O  0.60086301  0.22264249  0.57378576    -0.53900
C1818       C  0.65189832  0.28707652  0.60660560     0.86100
O1819       O  0.60422949  0.21147728  0.62929648    -0.55800
O1820       O  0.52657035  0.18719045  0.60302391    -0.59100
C1821       C  0.80737167  0.99132937  0.76595366     0.87500
C1822       C  0.84059999  0.99460444  0.75039337    -0.52800
C1823       C  0.82785777  0.02481081  0.73733017     0.10400
C1824       C  0.78059708  0.04962053  0.74181159     0.21300
C1825       C  0.80329972  0.04058178  0.77305432    -0.53500
C1826       C  0.79078219  0.07205318  0.76011708     0.10500
C1827       C  0.76272051  0.97908170  0.75675085    -0.53000
C1828       C  0.74267569  0.01379307  0.74740998     0.11100
H1829       H  0.87219821  0.47539429  0.74983050     0.15600
H1830       H  0.76938363  0.07306922  0.73094108     0.01300
H1831       H  0.81208798  0.04900120  0.78698816     0.15900
H1832       H  0.74402749  0.44940230  0.76128110     0.15700
C1833       C  0.64008587  0.02846291  0.78067096     0.87500
C1834       C  0.68301777  0.50955182  0.77225939    -0.52800
C1835       C  0.69471929  0.02561682  0.75515012     0.10400
C1836       C  0.65762050  0.06003695  0.74815891     0.21300
C1837       C  0.64691923  0.07920147  0.78028608    -0.53500
C1838       C  0.65499454  0.09703370  0.76340447     0.10500
C1839       C  0.60209815  0.51879081  0.76701610    -0.53000
C1840       C  0.60993226  0.03575671  0.74986770     0.11100
H1841       H  0.70417010  0.48779919  0.78060525     0.15600
H1842       H  0.66456551  0.07308290  0.73426866     0.01300
H1843       H  0.64467463  0.09895156  0.79270180     0.15900
H1844       H  0.57179331  0.49978044  0.77046324     0.15700
C1845       C  0.63706082  0.22712972  0.76717747     0.87500
C1846       C  0.60506337  0.22457603  0.75114667    -0.52800
C1847       C  0.61877864  0.19515992  0.73795978     0.10400
C1848       C  0.66589708  0.17061224  0.74257467     0.21300
C1849       C  0.64119525  0.17769255  0.77370643    -0.53500
C1850       C  0.65497197  0.14723538  0.76059690     0.10500
C1851       C  0.68258554  0.23999056  0.75873535    -0.53000
C1852       C  0.70314190  0.20643943  0.74872032     0.11100
H1853       H  0.57331027  0.24309175  0.75049666     0.15600
H1854       H  0.67776202  0.14767188  0.73162678     0.01300
H1855       H  0.63122513  0.16838707  0.78741886     0.15900
H1856       H  0.70076391  0.26948387  0.76369717     0.15700
C1857       C  0.80906245  0.19099244  0.78009783     0.87500
C1858       C  0.76597830  0.21070801  0.77224901    -0.52800
C1859       C  0.75210290  0.19469975  0.75547588     0.10400
C1860       C  0.78809283  0.15952406  0.74801228     0.21300
C1861       C  0.80129580  0.14013397  0.77998516    -0.53500
C1862       C  0.79132701  0.12235206  0.76320599     0.10500
C1863       C  0.84613228  0.19952067  0.76602060    -0.53000
C1864       C  0.83650647  0.18269433  0.74916576     0.11100
H1865       H  0.74616920  0.23300139  0.78085569     0.15600
H1866       H  0.77986364  0.14681176  0.73420193     0.01300
H1867       H  0.80500750  0.12028271  0.79232149     0.15900
H1868       H  0.87721206  0.21772415  0.76905131     0.15700
C1869       C  0.84955262  0.27611710  0.95418756     0.87500
C1870       C  0.83506527  0.32132896  0.96239330    -0.52800
C1871       C  0.86758382  0.34317121  0.97253717     0.10400
C1872       C  0.90426902  0.30706292  0.97896931     0.21300
C1873       C  0.89903982  0.28144775  0.94789091    -0.53500
C1874       C  0.92866063  0.29628021  0.96108415     0.10500
C1875       C  0.85216267  0.24455952  0.97026651    -0.53000
C1876       C  0.88041431  0.25945593  0.98361556     0.11100
H1877       H  0.80505371  0.33834184  0.95726979     0.15600
H1878       H  0.92648587  0.31971551  0.99002135     0.01300
H1879       H  0.90911221  0.27128909  0.93429003     0.15900
H1880       H  0.83421096  0.21244509  0.97093220     0.15700
C1881       C  0.88000589  0.44856048  0.94078223     0.87500
C1882       C  0.86933427  0.48604152  0.95455199    -0.52800
C1883       C  0.88590264  0.47818801  0.97167552     0.10400
C1884       C  0.91077369  0.43055724  0.97335935     0.21300
C1885       C  0.93109083  0.44284213  0.94143075    -0.53500
C1886       C  0.94845593  0.43438964  0.95845071     0.10500
C1887       C  0.86175895  0.40520004  0.94885029    -0.53000
C1888       C  0.87750426  0.39264747  0.96582421     0.11100
H1889       H  0.85013638  0.51618703  0.95108321     0.15600
H1890       H  0.92341312  0.42344656  0.98729396     0.01300
H1891       H  0.95127589  0.44604663  0.92916207     0.15900
H1892       H  0.84097626  0.38401990  0.94014975     0.15700
C1893       C  0.57861239  0.45411825  0.95594629     0.87500
C1894       C  0.59210267  0.40876409  0.96421704    -0.52800
C1895       C  0.55873042  0.38703418  0.97389405     0.10400
C1896       C  0.52168396  0.42329814  0.97996513     0.21300
C1897       C  0.52951319  0.44946592  0.94905748    -0.53500
C1898       C  0.49868452  0.43471228  0.96179891     0.10500
C1899       C  0.57516345  0.48539105  0.97212578    -0.53000
C1900       C  0.54573977  0.47053773  0.98512605     0.11100
H1901       H  0.62251894  0.39170697  0.95951494     0.15600
H1902       H  0.49844713  0.41060634  0.99067511     0.01300
H1903       H  0.52056664  0.45991586  0.93536481     0.15900
H1904       H  0.59324700  0.51738355  0.97305762     0.15700
C1905       C  0.54871352  0.28174970  0.94193965     0.87500
C1906       C  0.55753135  0.24411250  0.95583196    -0.52800
C1907       C  0.53957105  0.25236336  0.97268488     0.10400
C1908       C  0.51514554  0.30018353  0.97401203     0.21300
C1909       C  0.49780465  0.28826250  0.94181371    -0.53500
C1910       C  0.47899490  0.29680524  0.95852629     0.10500
C1911       C  0.56690747  0.32482070  0.95031059    -0.53000
C1912       C  0.54949263  0.33763154  0.96701709     0.11100
H1913       H  0.57657166  0.21366616  0.95267042     0.15600
H1914       H  0.50132946  0.30740896  0.98775110     0.01300
H1915       H  0.47874197  0.28532966  0.92924964     0.15900
H1916       H  0.58890616  0.34565624  0.94193924     0.15700
In1917     In  0.61845661  0.50405299  0.87120146     1.36900
C1918       C  0.62363966  0.48600295  0.90626642     0.78600
O1919       O  0.67609461  0.05161240  0.87243545    -0.59900
O1920       O  0.60741194  0.07659785  0.87392139    -0.50800
C1921       C  0.63057883  0.50369452  0.83559102     0.71200
O1922       O  0.65666954  0.48094732  0.84607241    -0.45600
C1923       C  0.54847473  0.45523793  0.86488299     0.75900
O1924       O  0.65233272  0.46929009  0.89512564    -0.57500
O1925       O  0.54565853  0.99721537  0.86837253    -0.47600
O1926       O  0.59374250  0.51122804  0.89933628    -0.53900
C1927       C  0.64936151  0.08513181  0.87295814     0.86100
O1928       O  0.60009377  0.02679412  0.84344875    -0.55800
O1929       O  0.58729159  0.43704999  0.86594956    -0.59100
In1930     In  0.84250033  0.46156553  0.85070733     1.36900
C1931       C  0.83005935  0.44768351  0.81579304     0.78600
O1932       O  0.77364305  0.99118887  0.85465495    -0.59900
O1933       O  0.83198898  0.03379815  0.84977537    -0.50800
C1934       C  0.84587804  0.45571220  0.88649005     0.71200
O1935       O  0.82343919  0.42672040  0.87717123    -0.45600
C1936       C  0.92549155  0.43669492  0.85064644     0.75900
O1937       O  0.81245806  0.42065102  0.82742492    -0.57500
O1938       O  0.91397779  0.97756669  0.84840108    -0.47600
O1939       O  0.85307740  0.97984571  0.82221356    -0.53900
C1940       C  0.79030342  0.03074607  0.85350931     0.86100
O1941       O  0.86502650  0.48668102  0.87746189    -0.55800
O1942       O  0.89401305  0.40754443  0.85158644    -0.59100
In1943     In  0.58385332  0.27269764  0.85186638     1.36900
C1944       C  0.60221756  0.27576084  0.81667391     0.78600
O1945       O  0.65206612  0.24610523  0.85834393    -0.59900
O1946       O  0.59540596  0.20076593  0.85332752    -0.50800
C1947       C  0.58024115  0.27607450  0.88760835     0.71200
O1948       O  0.60347066  0.30506441  0.87856375    -0.45600
C1949       C  0.50403506  0.30663069  0.85241967     0.75900
O1950       O  0.61963653  0.30451794  0.82764864    -0.57500
O1951       O  0.51117176  0.26482810  0.84980489    -0.47600
O1952       O  0.57475801  0.24792740  0.82372051    -0.53900
C1953       C  0.63627265  0.20604724  0.85826055     0.86100
O1954       O  0.55921359  0.24670558  0.87828665    -0.55800
O1955       O  0.53841734  0.33254538  0.85289305    -0.59100
In1956     In  0.81820007  0.23123348  0.86919946     1.36900
C1957       C  0.80762409  0.24326207  0.90424248     0.78600
O1958       O  0.75726610  0.18881422  0.86585765    -0.59900
O1959       O  0.82285302  0.15797761  0.87068035    -0.50800
C1960       C  0.81911761  0.22708133  0.83371950     0.71200
O1961       O  0.78840595  0.24935606  0.84214225    -0.45600
C1962       C  0.88364446  0.28773791  0.86630414     0.75900
O1963       O  0.78248280  0.26407769  0.89282236    -0.57500
O1964       O  0.88990264  0.24617298  0.86995912    -0.47600
O1965       O  0.83579786  0.21552905  0.89759089    -0.53900
C1966       C  0.78113374  0.15311504  0.86695233     0.86100
O1967       O  0.84931000  0.20860114  0.84350763    -0.55800
O1968       O  0.84294061  0.30156005  0.86538515    -0.59100
C1969       C  0.92143709  0.31519437  0.86173244    -0.12300
C1970       C  0.95942333  0.32120550  0.85658370    -0.13800
C1971       C  0.76417758  0.10940969  0.86260501    -0.12300
C1972       C  0.76614691  0.07076963  0.85779006    -0.13800
C1973       C  0.66395719  0.13034463  0.87041045    -0.12300
C1974       C  0.66047871  0.16826402  0.86495472    -0.13800
C1975       C  0.97149539  0.42603845  0.85386170    -0.12300
C1976       C  0.00947502  0.43155853  0.85897435    -0.13800
C1977       C  0.57635069  0.27596534  0.90724435    -0.12300
C1978       C  0.56677686  0.27506858  0.92331596    -0.13800
C1979       C  0.60840528  0.46830593  0.94078948    -0.12300
C1980       C  0.62212968  0.47610222  0.92553411    -0.13800
C1981       C  0.86263067  0.45483840  0.92198911    -0.12300
C1982       C  0.85157383  0.45412403  0.90605525    -0.13800
C1983       C  0.82097514  0.26130944  0.93879281    -0.12300
C1984       C  0.80809635  0.25257126  0.92352741    -0.13800
C1985       C  0.81908008  0.22043856  0.81429729    -0.12300
C1986       C  0.81791079  0.20889508  0.79850091    -0.13800
C1987       C  0.61415005  0.27160777  0.79756854    -0.12300
C1988       C  0.62331216  0.25678859  0.78255387    -0.13800
C1989       C  0.63394818  0.50457226  0.81591687    -0.12300
C1990       C  0.63383872  0.01198447  0.79959377    -0.13800
C1991       C  0.82328228  0.44575222  0.79638464    -0.12300
C1992       C  0.81854368  0.96018014  0.78102609    -0.13800
C1993       C  0.54149661  0.10920908  0.60485150    -0.12300
C1994       C  0.54528869  0.07085331  0.60956993    -0.13800
C1995       C  0.74178021  0.41458064  0.61487600    -0.12300
C1996       C  0.78015436  0.41701358  0.60990326    -0.13800
C1997       C  0.73014076  0.31270464  0.61633403    -0.12300
C1998       C  0.69144940  0.31100378  0.61166285    -0.13800
C1999       C  0.93490826  0.15376562  0.60826895    -0.12300
C2000       C  0.94008413  0.11576925  0.60302853    -0.13800
C2001       C  0.58823974  0.45224793  0.67408497    -0.12300
C2002       C  0.57862003  0.96559222  0.68922859    -0.13800
C2003       C  0.88459994  0.49929869  0.65604402    -0.12300
C2004       C  0.88247844  0.00819422  0.67218344    -0.13800
C2005       C  0.56603347  0.21221762  0.67294760    -0.12300
C2006       C  0.56796124  0.22428276  0.65718190    -0.13800
C2007       C  0.87334305  0.25253584  0.68903644    -0.12300
C2008       C  0.86731426  0.26409890  0.67342672    -0.13800
C2009       C  0.56416704  0.24874802  0.54762939    -0.12300
C2010       C  0.57462252  0.25128741  0.53169639    -0.13800
C2011       C  0.61038248  0.44018485  0.56506610    -0.12300
C2012       C  0.61896686  0.43807982  0.54897042    -0.13800
C2013       C  0.83022531  0.25075820  0.56447544    -0.12300
C2014       C  0.81933162  0.25248966  0.54861602    -0.13800
C2015       C  0.88393064  0.46026557  0.54718590    -0.12300
C2016       C  0.86696499  0.45028244  0.53270929    -0.13800
C2017       C  0.79966768  0.00509305  0.04665438    -0.12300
C2018       C  0.81316338  0.01341167  0.03141996    -0.13800
C2019       C  0.55979872  0.02534871  0.05053744    -0.12300
C2020       C  0.57164204  0.02643468  0.06639236    -0.13800
C2021       C  0.95484774  0.06503372  0.11571423    -0.12300
C2022       C  0.91708384  0.06007635  0.11017964    -0.13800
C2023       C  0.61045344  0.21422428  0.03245812    -0.12300
C2024       C  0.62541971  0.22283650  0.04743187    -0.13800
C2025       C  0.65933956  0.37689199  0.10743615    -0.12300
C2026       C  0.65708302  0.41468003  0.11316377    -0.13800
C2027       C  0.86088834  0.21012093  0.04889539    -0.12300
C2028       C  0.84950357  0.21213408  0.06473268    -0.13800
C2029       C  0.00768393  0.17399528  0.10970796    -0.12300
C2030       C  0.96920478  0.16969475  0.11441078    -0.13800
C2031       C  0.76399732  0.32199698  0.11341406    -0.12300
C2032       C  0.75995061  0.35970051  0.10780003    -0.13800
C2033       C  0.62986694  0.26378781  0.17247879    -0.12300
C2034       C  0.62863017  0.25424061  0.15645021    -0.13800
C2035       C  0.60668884  0.52530719  0.17621589    -0.12300
C2036       C  0.61593179  0.50968488  0.19106129    -0.13800
C2037       C  0.82006393  0.21541874  0.18990549    -0.12300
C2038       C  0.82682575  0.20290870  0.17444391    -0.13800
C2039       C  0.80671899  0.47250982  0.15637271    -0.12300
C2040       C  0.80717767  0.46149669  0.17230212    -0.13800
C2041       C  0.55132893  0.31317581  0.35974860    -0.12300
C2042       C  0.54691477  0.35129454  0.36469603    -0.13800
C2043       C  0.72820648  0.55483160  0.35716681    -0.12300
C2044       C  0.68960090  0.55334672  0.36193518    -0.13800
C2045       C  0.78397211  0.16148605  0.35962768    -0.12300
C2046       C  0.74593642  0.15640301  0.35441197    -0.13800
C2047       C  0.94263820  0.36423513  0.36728835    -0.12300
C2048       C  0.93693083  0.40203255  0.36188046    -0.13800
C2049       C  0.55723904  0.47407430  0.31535938    -0.12300
C2050       C  0.55598913  0.46140262  0.29967718    -0.13800
C2051       C  0.86968076  0.50402019  0.28209719    -0.12300
C2052       C  0.86440392  0.51446161  0.29792272    -0.13800
C2053       C  0.57581585  0.21352281  0.28190800    -0.12300
C2054       C  0.58657978  0.19792824  0.29658245    -0.13800
C2055       C  0.88021885  0.26139128  0.29969305    -0.12300
C2056       C  0.88197344  0.25303201  0.31584630    -0.13800
C2057       C  0.57480404  0.99953195  0.43998646    -0.12300
C2058       C  0.56181002  0.99515227  0.42446110    -0.13800
C2059       C  0.62030775  0.18704640  0.42204445    -0.12300
C2060       C  0.61244194  0.18713557  0.40581159    -0.13800
C2061       C  0.88240138  0.21175786  0.42473511    -0.12300
C2062       C  0.86650859  0.20101902  0.43933690    -0.13800
C2063       C  0.82250502  0.00391928  0.42350262    -0.12300
C2064       C  0.83439798  0.00238753  0.40771243    -0.13800
C2065       C  0.80428356  0.51274481  0.44190376     0.87500
C2066       C  0.81272665  0.47576212  0.45602318    -0.52800
C2067       C  0.79569550  0.48526486  0.47285965     0.10400
C2068       C  0.77209668  0.53358206  0.47392617     0.21300
C2069       C  0.75340148  0.52027673  0.44191846    -0.53500
C2070       C  0.73521294  0.53004446  0.45865694     0.10500
C2071       C  0.82370792  0.55592448  0.44980797    -0.53000
C2072       C  0.80703749  0.56997305  0.46645707     0.11100
H2073       H  0.83115948  0.94480128  0.45307457     0.15600
H2074       H  0.75897520  0.54177561  0.48768577     0.01300
H2075       H  0.73387353  0.51666321  0.42950256     0.15900
H2076       H  0.84605913  0.57580201  0.44122240     0.15700
C2077       C  0.83644248  0.68608733  0.45427108     0.87500
C2078       C  0.85025239  0.64092941  0.46275791    -0.52800
C2079       C  0.81716056  0.61964705  0.47281478     0.10400
C2080       C  0.78029647  0.65601476  0.47873578     0.21300
C2081       C  0.78726351  0.68059115  0.44754144    -0.53500
C2082       C  0.75690205  0.66621707  0.46060385     0.10500
C2083       C  0.83289863  0.71808488  0.47018397    -0.53000
C2084       C  0.80378234  0.70372932  0.48330076     0.11100
H2085       H  0.88035902  0.62358963  0.45793339     0.15600
H2086       H  0.75754735  0.64373819  0.48968363     0.01300
H2087       H  0.77792348  0.69026980  0.43379812     0.15900
H2088       H  0.85089824  0.75017350  0.47088370     0.15700
C2089       C  0.63756806  0.68057115  0.44078710     0.87500
C2090       C  0.62838864  0.71858447  0.45451298    -0.52800
C2091       C  0.64560198  0.71057888  0.47153049     0.10400
C2092       C  0.66995504  0.66294221  0.47314260     0.21300
C2093       C  0.68845477  0.67391077  0.44095840    -0.53500
C2094       C  0.70665314  0.66575234  0.45779514     0.10500
C2095       C  0.61898685  0.63777974  0.44926328    -0.53000
C2096       C  0.63556463  0.62571204  0.46622180     0.11100
H2097       H  0.60947233  0.74896957  0.45114593     0.15600
H2098       H  0.68322852  0.65599449  0.48698970     0.01300
H2099       H  0.70803251  0.67652365  0.42850138     0.15900
H2100       H  0.59710778  0.61673763  0.44094932     0.15700
C2101       C  0.60468703  0.51167983  0.45528480     0.87500
C2102       C  0.59110698  0.55623855  0.46418487    -0.52800
C2103       C  0.62489648  0.57729291  0.47374213     0.10400
C2104       C  0.66140675  0.54041795  0.47967921     0.21300
C2105       C  0.65407776  0.51659098  0.44851705    -0.53500
C2106       C  0.68479324  0.53013064  0.46155290     0.10500
C2107       C  0.60781085  0.47904741  0.47100746    -0.53000
C2108       C  0.63715125  0.49289359  0.48420385     0.11100
H2109       H  0.56101993  0.57403279  0.45956414     0.15600
H2110       H  0.68430548  0.55234112  0.49063084     0.01300
H2111       H  0.66319382  0.50734341  0.43470287     0.15900
H2112       H  0.58942044  0.94721763  0.47154832     0.15700
C2113       C  0.88717224  0.77768453  0.28081901     0.87500
C2114       C  0.93008480  0.75815709  0.27279928    -0.52800
C2115       C  0.94319083  0.77392674  0.25588637     0.10400
C2116       C  0.90630668  0.80827975  0.24835335     0.21300
C2117       C  0.89440871  0.82842886  0.28025009    -0.53500
C2118       C  0.90287322  0.84579038  0.26327056     0.10500
C2119       C  0.84942789  0.76824409  0.26700769    -0.53000
C2120       C  0.85810631  0.78478730  0.24993559     0.11100
H2121       H  0.95056916  0.73663833  0.28143292     0.15600
H2122       H  0.91391372  0.82091534  0.23445559     0.01300
H2123       H  0.89135979  0.84846476  0.29255080     0.15900
H2124       H  0.81854467  0.75011573  0.27040106     0.15700
C2125       C  0.56016241  0.74362393  0.26699659     0.87500
C2126       C  0.59076607  0.74662306  0.25059438    -0.52800
C2127       C  0.57581801  0.77598813  0.23765529     0.10400
C2128       C  0.52875217  0.79993093  0.24284042     0.21300
C2129       C  0.55587664  0.79299393  0.27369514    -0.53500
C2130       C  0.54034491  0.82330545  0.26084868     0.10500
C2131       C  0.51407562  0.73032962  0.25919961    -0.53000
C2132       C  0.99250951  0.76338694  0.24922754     0.11100
H2133       H  0.62278329  0.72865049  0.24957450     0.15600
H2134       H  0.51583500  0.82276319  0.23205297     0.01300
H2135       H  0.56659392  0.80250184  0.28730189     0.15900
H2136       H  0.99664335  0.70061710  0.26440288     0.15700
C2137       C  0.88205886  0.97553493  0.26637399     0.87500
C2138       C  0.84941243  0.97282444  0.25066429    -0.52800
C2139       C  0.86317641  0.94395898  0.23729227     0.10400
C2140       C  0.91062848  0.91923706  0.24176099     0.21300
C2141       C  0.88686304  0.92623194  0.27293428    -0.53500
C2142       C  0.90067736  0.89580701  0.25992142     0.10500
C2143       C  0.92675762  0.98919112  0.25743385    -0.53000
C2144       C  0.94778779  0.95533192  0.24780746     0.11100
H2145       H  0.81758941  0.99126512  0.25022007     0.15600
H2146       H  0.92238689  0.89629228  0.23079502     0.01300
H2147       H  0.87783981  0.91708178  0.28676437     0.15900
H2148       H  0.94478441  0.01902407  0.26222000     0.15700
C2149       C  0.55019923  0.94271442  0.28116974     0.87500
C2150       C  0.50695782  0.95978494  0.27271413    -0.52800
C2151       C  0.99583062  0.94380375  0.25561416     0.10400
C2152       C  0.53422867  0.91048127  0.24868533     0.21300
C2153       C  0.54535645  0.89154486  0.28088616    -0.53500
C2154       C  0.53813023  0.87346904  0.26391837     0.10500
C2155       C  0.58806758  0.95349184  0.26759037    -0.53000
C2156       C  0.58113945  0.93610997  0.25056373     0.11100
H2157       H  0.98503602  0.98068199  0.28109494     0.15600
H2158       H  0.52803574  0.89730123  0.23476486     0.01300
H2159       H  0.54854350  0.87176137  0.29326895     0.15900
H2160       H  0.61768450  0.97350789  0.27109184     0.15700
In2161     In  0.88661979  0.74319216  0.37098293     1.36900
C2162       C  0.88784268  0.72489934  0.40587620     0.78600
O2163       O  0.94946475  0.78460798  0.36966837    -0.59900
O2164       O  0.88391633  0.81578229  0.37426364    -0.50800
C2165       C  0.88483390  0.74917321  0.33541196     0.71200
O2166       O  0.91454739  0.72490692  0.34353274    -0.45600
C2167       C  0.82158220  0.68798852  0.36537780     0.75900
O2168       O  0.91750415  0.70791493  0.39519488    -0.57500
O2169       O  0.81508221  0.72919206  0.36962554    -0.47600
O2170       O  0.86018148  0.75240389  0.39872481    -0.53900
C2171       C  0.92589071  0.82047763  0.37113016     0.86100
O2172       O  0.85744858  0.77058512  0.34557762    -0.55800
O2173       O  0.86225082  0.67368409  0.36521686    -0.59100
In2174     In  0.85003375  0.00151341  0.35273409     1.36900
C2175       C  0.85912849  0.01207991  0.31746067     0.78600
O2176       O  0.92117366  0.98011473  0.35731204    -0.59900
O2177       O  0.86788919  0.93076251  0.35246706    -0.50800
C2178       C  0.84236991  0.00180109  0.38830228     0.71200
O2179       O  0.86588184  0.53173375  0.38000183    -0.45600
C2180       C  0.77199785  0.03783182  0.35366144     0.75900
O2181       O  0.87821610  0.03928384  0.32860824    -0.57500
O2182       O  0.77720783  0.99563478  0.35099937    -0.47600
O2183       O  0.83622296  0.98028616  0.32451903    -0.53900
C2184       C  0.90885334  0.93884466  0.35658034     0.86100
O2185       O  0.82417781  0.97170063  0.37835764    -0.55800
O2186       O  0.80744118  0.56219973  0.35447862    -0.59100
In2187     In  0.61914134  0.69988561  0.35045004     1.36900
C2188       C  0.61302183  0.68992868  0.38611278     0.78600
O2189       O  0.66747124  0.64270466  0.35136563    -0.59900
O2190       O  0.69186885  0.71117625  0.34859712    -0.50800
C2191       C  0.59995324  0.69390609  0.31544492     0.71200
O2192       O  0.58191604  0.66676817  0.32688664    -0.45600
C2193       C  0.57373053  0.77262535  0.35483898     0.75900
O2194       O  0.59117052  0.66370688  0.37537492    -0.57500
O2195       O  0.61616080  0.77289173  0.35233192    -0.47600
O2196       O  0.63737999  0.71950846  0.37849948    -0.53900
C2197       C  0.70082220  0.66971190  0.35083833     0.86100
O2198       O  0.62883464  0.72098889  0.32190473    -0.55800
O2199       O  0.55355819  0.73482553  0.35391839    -0.59100
In2200     In  0.57862328  0.98044482  0.36992766     1.36900
C2201       C  0.56423882  0.98982901  0.40500720     0.78600
O2202       O  0.52711001  0.92734022  0.36858191    -0.59900
O2203       O  0.59780341  0.90934457  0.37057915    -0.50800
C2204       C  0.56401849  0.98036680  0.33463764     0.71200
O2205       O  0.53587890  0.99946258  0.34542286    -0.45600
C2206       C  0.64920737  0.03038267  0.36658671     0.75900
O2207       O  0.53931354  0.51073972  0.39352363    -0.57500
O2208       O  0.65110872  0.98838376  0.36966977    -0.47600
O2209       O  0.59483662  0.96516848  0.39836459    -0.53900
C2210       C  0.55713631  0.89684822  0.36851784     0.86100
O2211       O  0.59905457  0.96419813  0.34194273    -0.55800
O2212       O  0.61035663  0.54860511  0.36642514    -0.59100
C2213       C  0.80061315  0.94378890  0.19097236     0.87500
C2214       C  0.83866091  0.95311281  0.20469347    -0.52800
C2215       C  0.83064367  0.93588740  0.22171267     0.10400
C2216       C  0.78282583  0.91206153  0.22340833     0.21300
C2217       C  0.79392590  0.89282938  0.19130648    -0.53500
C2218       C  0.78608263  0.87497822  0.20827918     0.10500
C2219       C  0.75778816  0.96255626  0.19933035    -0.53000
C2220       C  0.74566791  0.94655563  0.21632813     0.11100
H2221       H  0.86921661  0.97176021  0.20128200     0.15600
H2222       H  0.77579596  0.89908522  0.23729916     0.01300
H2223       H  0.79699415  0.87297489  0.17894943     0.15900
H2224       H  0.73679452  0.98426259  0.19095733     0.15700
C2225       C  0.80692442  0.74503035  0.20521690     0.87500
C2226       C  0.76160355  0.73203135  0.21379830    -0.52800
C2227       C  0.74096241  0.76581568  0.22361347     0.10400
C2228       C  0.77833040  0.80158122  0.22971452     0.21300
C2229       C  0.80270065  0.79441398  0.19856246    -0.53500
C2230       C  0.78865262  0.82491383  0.21154753     0.10500
C2231       C  0.83914317  0.74748235  0.22107647    -0.53000
C2232       C  0.82554944  0.77664722  0.23432506     0.11100
H2233       H  0.74326366  0.70263509  0.20881090     0.15600
H2234       H  0.76653509  0.82450617  0.24067068     0.01300
H2235       H  0.81199868  0.80362613  0.18475288     0.15900
H2236       H  0.87079354  0.72875884  0.22165375     0.15700
C2237       C  0.63032081  0.97937160  0.20603276     0.87500
C2238       C  0.67618919  0.99207896  0.21418441    -0.52800
C2239       C  0.69733055  0.95817001  0.22378751     0.10400
C2240       C  0.66046813  0.92208678  0.23006486     0.21300
C2241       C  0.63421333  0.93006015  0.19918417    -0.53500
C2242       C  0.64901172  0.89921778  0.21198495     0.10500
C2243       C  0.59920600  0.97634086  0.22226068    -0.53000
C2244       C  0.61352837  0.94654207  0.23516557     0.11100
H2245       H  0.69417468  0.02168405  0.20916578     0.15600
H2246       H  0.67291032  0.89886342  0.24080951     0.01300
H2247       H  0.62387671  0.92113562  0.18547188     0.15900
H2248       H  0.56735940  0.99463903  0.22319539     0.15700
C2249       C  0.63686983  0.78079094  0.19119075     0.87500
C2250       C  0.59942899  0.77016392  0.20497038    -0.52800
C2251       C  0.60760985  0.78653088  0.22206867     0.10400
C2252       C  0.65501209  0.81143404  0.22371801     0.21300
C2253       C  0.64273757  0.83173021  0.19176231    -0.53500
C2254       C  0.65091918  0.84910029  0.20873884     0.10500
C2255       C  0.68027150  0.76241266  0.19919917    -0.53000
C2256       C  0.69254594  0.77777896  0.21628419     0.11100
H2257       H  0.56921719  0.75095844  0.20156007     0.15600
H2258       H  0.66213299  0.82402951  0.23765832     0.01300
H2259       H  0.63932891  0.85193605  0.17950888     0.15900
H2260       H  0.70135204  0.74136505  0.19058833     0.15700
In2261     In  0.84435828  0.71661003  0.11998154     1.36900
C2262       C  0.84455078  0.71414396  0.08428188     0.78600
O2263       O  0.77461763  0.74352377  0.11738999    -0.59900
O2264       O  0.83220104  0.78852674  0.12074359    -0.50800
C2265       C  0.83406626  0.70453991  0.15504400     0.71200
O2266       O  0.81570534  0.67738538  0.14368273    -0.45600
C2267       C  0.92450435  0.68416897  0.11819186     0.75900
O2268       O  0.82165672  0.68541388  0.09354348    -0.57500
O2269       O  0.91708312  0.72578189  0.12121951    -0.47600
O2270       O  0.86550876  0.74401064  0.09334350    -0.53900
C2271       C  0.79015195  0.78363968  0.11785413     0.86100
O2272       O  0.85764343  0.73613010  0.14829845    -0.55800
O2273       O  0.89038525  0.65806440  0.11732246    -0.59100
In2274     In  0.61621964  0.75070635  0.10140649     1.36900
C2275       C  0.62678328  0.73432449  0.06651129     0.78600
O2276       O  0.58669390  0.68250496  0.10609480    -0.59900
O2277       O  0.54355087  0.74045974  0.10117336    -0.50800
C2278       C  0.62475568  0.75063408  0.13693768     0.71200
O2279       O  0.65350144  0.73007449  0.12686219    -0.45600
C2280       C  0.64562103  0.83229290  0.10294346     0.75900
O2281       O  0.65239581  0.71529113  0.07824532    -0.57500
O2282       O  0.60404179  0.82351145  0.10051617    -0.47600
O2283       O  0.59866185  0.76252711  0.07273306    -0.53900
C2284       C  0.54705875  0.69882773  0.10511538     0.86100
O2285       O  0.59230144  0.76973707  0.12875833    -0.55800
O2286       O  0.67283567  0.79913246  0.10275936    -0.59100
In2287     In  0.58094024  0.02214670  0.12183232     1.36900
C2288       C  0.59547160  0.02915299  0.15707574     0.78600
O2289       O  0.53272946  0.57930257  0.12074637    -0.59900
O2290       O  0.50859320  0.01020624  0.12221439    -0.50800
C2291       C  0.57834079  0.52566332  0.08594601     0.71200
O2292       O  0.59788430  0.55702406  0.09511588    -0.45600
C2293       C  0.63334227  0.95402768  0.11856554     0.75900
O2294       O  0.61539840  0.55579620  0.14589234    -0.57500
O2295       O  0.59195257  0.95029807  0.12285239    -0.47600
O2296       O  0.56708435  0.00211885  0.15016438    -0.53900
C2297       C  0.49971250  0.55174059  0.12018943     0.86100
O2298       O  0.56238525  0.99311219  0.09516179    -0.55800
O2299       O  0.64970308  0.99377155  0.11735554    -0.59100
In2300     In  0.81010682  0.98226868  0.10105872     1.36900
C2301       C  0.79951128  0.49562764  0.06599385     0.78600
O2302       O  0.83848833  0.55084404  0.10537262    -0.59900
O2303       O  0.88257750  0.99328259  0.10103818    -0.50800
C2304       C  0.80734704  0.97839658  0.13678013     0.71200
O2305       O  0.77806056  0.50130422  0.12789564    -0.45600
C2306       C  0.77530587  0.90352137  0.10284467     0.75900
O2307       O  0.77423804  0.51581455  0.07754390    -0.57500
O2308       O  0.81702626  0.90950711  0.09948129    -0.47600
O2309       O  0.82802349  0.96824051  0.07250873    -0.53900
C2310       C  0.87837774  0.53480438  0.10493266     0.86100
O2311       O  0.83749050  0.95885097  0.12737040    -0.55800
O2312       O  0.75014650  0.93835949  0.10341110    -0.59100
C2313       C  0.57989474  0.70114443  0.01738476     0.87500
C2314       C  0.57771188  0.73315447  0.00140840    -0.52800
C2315       C  0.54791951  0.71993523  0.98830394     0.10400
C2316       C  0.52245026  0.67320251  0.99306223     0.21300
C2317       C  0.53036600  0.69782398  0.02416157    -0.53500
C2318       C  0.49940778  0.68445756  0.01116292     0.10500
C2319       C  0.59195983  0.65558409  0.00886083    -0.53000
C2320       C  0.55768726  0.63538009  0.99917378     0.11100
H2321       H  0.59697433  0.76449001  0.00068378     0.15600
H2322       H  0.49937143  0.66159244  0.98213153     0.01300
H2323       H  0.52138363  0.70751341  0.03794752     0.15900
H2324       H  0.62114050  0.63684036  0.01379123     0.15700
C2325       C  0.87960115  0.70116699  0.03056902     0.87500
C2326       C  0.86098519  0.65740625  0.02276118    -0.52800
C2327       C  0.87763158  0.64365066  0.00604510     0.10400
C2328       C  0.91245200  0.68017454  0.99868424     0.21300
C2329       C  0.93061740  0.69445621  0.03071131    -0.53500
C2330       C  0.94905764  0.68443478  0.01404079     0.10500
C2331       C  0.87094345  0.73780312  0.01628535    -0.53000
C2332       C  0.88859766  0.72818924  0.99955056     0.11100
H2333       H  0.83881359  0.63729241  0.03128445     0.15600
H2334       H  0.92574578  0.67194701  0.98496326     0.01300
H2335       H  0.95006588  0.69882147  0.04311606     0.15900
H2336       H  0.85222757  0.76866009  0.01910972     0.15700
C2337       C  0.84339194  0.52764285  0.01644618     0.87500
C2338       C  0.84559724  0.49694756  0.00003767    -0.52800
C2339       C  0.87587678  0.51080671  0.98720556     0.10400
C2340       C  0.90126389  0.55730839  0.99257305     0.21300
C2341       C  0.89268306  0.53022622  0.02332083    -0.53500
C2342       C  0.92380109  0.54488922  0.01066522     0.10500
C2343       C  0.83179948  0.57413844  0.00867834    -0.53000
C2344       C  0.86585267  0.59481763  0.99899294     0.11100
H2345       H  0.82656260  0.96549226  0.99894256     0.15600
H2346       H  0.92477222  0.56962087  0.98190062     0.01300
H2347       H  0.90143182  0.51924468  0.03697571     0.15900
H2348       H  0.80254124  0.59242104  0.01380291     0.15700
C2349       C  0.54210534  0.53168505  0.03177406     0.87500
C2350       C  0.56048976  0.57496933  0.02365965    -0.52800
C2351       C  0.54523383  0.58716613  0.00657481     0.10400
C2352       C  0.51144586  0.54976658  0.99917561     0.21300
C2353       C  0.49106831  0.53760325  0.03115569    -0.53500
C2354       C  0.47382532  0.54591275  0.01411414     0.10500
C2355       C  0.55246765  0.49410043  0.01795326    -0.53000
C2356       C  0.53590363  0.50226800  0.00083493     0.11100
H2357       H  0.58160331  0.59617155  0.03223166     0.15600
H2358       H  0.49891997  0.55690727  0.98523019     0.01300
H2359       H  0.47076168  0.53431163  0.04339436     0.15900
H2360       H  0.57154153  0.46384281  0.02135429     0.15700
C2361       C  0.83654972  0.93571361  0.51781508     0.87500
C2362       C  0.83375911  0.96751920  0.50177973    -0.52800
C2363       C  0.80456963  0.95344438  0.48863166     0.10400
C2364       C  0.78054621  0.90601766  0.49325281     0.21300
C2365       C  0.78710378  0.93106401  0.52440863    -0.53500
C2366       C  0.75689870  0.91673147  0.51126795     0.10500
C2367       C  0.84985453  0.89021878  0.50956112    -0.53000
C2368       C  0.81682766  0.86929579  0.49941791     0.11100
H2369       H  0.85211259  0.99939944  0.50107037     0.15600
H2370       H  0.75795970  0.89378730  0.48225685     0.01300
H2371       H  0.77752400  0.94103686  0.53809530     0.15900
H2372       H  0.87949428  0.87243890  0.51461524     0.15700
C2373       C  0.80228123  0.76196342  0.53009586     0.87500
C2374       C  0.82200973  0.80545810  0.52252606    -0.52800
C2375       C  0.80608607  0.81977309  0.50577137     0.10400
C2376       C  0.77145303  0.78364800  0.49797365     0.21300
C2377       C  0.75155647  0.76953837  0.52980159    -0.53500
C2378       C  0.73408588  0.77983358  0.51299708     0.10500
C2379       C  0.81126424  0.72534155  0.51591832    -0.53000
C2380       C  0.79484414  0.73530215  0.49904007     0.11100
H2381       H  0.84387732  0.82522201  0.53131970     0.15600
H2382       H  0.75883897  0.79218183  0.48416944     0.01300
H2383       H  0.73169671  0.76562160  0.54211375     0.15900
H2384       H  0.82937836  0.69421839  0.51891388     0.15700
C2385       C  0.63695445  0.93095680  0.53042696     0.87500
C2386       C  0.61884693  0.88793376  0.52200008    -0.52800
C2387       C  0.63579182  0.87584884  0.50510486     0.10400
C2388       C  0.67037879  0.91312716  0.49831811     0.21300
C2389       C  0.68788181  0.92456859  0.53057612    -0.53500
C2390       C  0.70660084  0.91623080  0.51385146     0.10500
C2391       C  0.62802775  0.96872113  0.51662959    -0.53000
C2392       C  0.64595182  0.96071849  0.49977954     0.11100
H2393       H  0.59681303  0.86689116  0.53026756     0.15600
H2394       H  0.68402272  0.90617978  0.48453325     0.01300
H2395       H  0.70709038  0.92756499  0.54310728     0.15900
H2396       H  0.60879986  0.99902533  0.51983838     0.12500
C2397       C  0.60379332  0.76238955  0.51601027     0.87500
C2398       C  0.60695603  0.72935155  0.50036358    -0.52800
C2399       C  0.63650963  0.74290933  0.48712153     0.10400
C2400       C  0.66099943  0.79036893  0.49162471     0.21300
C2401       C  0.65300556  0.76709467  0.52280205    -0.53500
C2402       C  0.68393577  0.78016861  0.50983593     0.10500
C2403       C  0.59057955  0.80683490  0.50689367    -0.53000
C2404       C  0.62472960  0.82762098  0.49743571     0.11100
H2405       H  0.58846222  0.69753930  0.49988843     0.15600
H2406       H  0.68420657  0.80200988  0.48072479     0.01300
H2407       H  0.66177118  0.75813827  0.53668471     0.15900
H2408       H  0.56054321  0.82491768  0.51141413     0.15700
C2409       C  0.88675233  0.72344134  0.70441364     0.87500
C2410       C  0.93146245  0.73754741  0.71311929    -0.52800
C2411       C  0.95274972  0.70437150  0.72301269     0.10400
C2412       C  0.91621998  0.66750206  0.72897007     0.21300
C2413       C  0.89212805  0.67423228  0.69779574    -0.53500
C2414       C  0.90610967  0.64393524  0.71086285     0.10500
C2415       C  0.85429981  0.72021568  0.72018337    -0.53000
C2416       C  0.86847498  0.69124729  0.73342392     0.11100
H2417       H  0.94888119  0.76776298  0.70835557     0.15600
H2418       H  0.92830588  0.64476941  0.73994940     0.01300
H2419       H  0.88259679  0.66488515  0.68403888     0.15900
H2420       H  0.82229389  0.73832071  0.72074201     0.15700
C2421       C  0.55860267  0.69327082  0.69136454     0.87500
C2422       C  0.59553797  0.70299867  0.70540564    -0.52800
C2423       C  0.58689709  0.68564291  0.72229496     0.10400
C2424       C  0.53935355  0.66057953  0.72351039     0.21300
C2425       C  0.55262362  0.64222721  0.69143823    -0.53500
C2426       C  0.54349100  0.62384898  0.70822695     0.10500
C2427       C  0.51498140  0.71112513  0.69935196    -0.53000
C2428       C  0.00197037  0.69439477  0.71615815     0.11100
H2429       H  0.62590640  0.72230150  0.70230434     0.15600
H2430       H  0.53179978  0.64711484  0.73728682     0.01300
H2431       H  0.55615893  0.62283127  0.67898628     0.15900
H2432       H  0.99420598  0.73256131  0.69077843     0.15700
C2433       C  0.88958948  0.52502663  0.69092133     0.87500
C2434       C  0.85164614  0.01655432  0.70476638    -0.52800
C2435       C  0.86061282  0.53325593  0.72174458     0.10400
C2436       C  0.90895451  0.55681719  0.72317646     0.21300
C2437       C  0.89719985  0.57576921  0.69112912    -0.53500
C2438       C  0.90613558  0.59371778  0.70795928     0.10500
C2439       C  0.93211003  0.00565383  0.69913435    -0.53000
C2440       C  0.94572080  0.52217633  0.71587309     0.11100
H2441       H  0.82073668  0.99834483  0.70148838     0.15600
H2442       H  0.91658062  0.56989878  0.73699907     0.01300
H2443       H  0.89452440  0.59536150  0.67869484     0.15900
H2444       H  0.95227886  0.98358509  0.69060979     0.15700
C2445       C  0.56324206  0.49403535  0.70456330     0.87500
C2446       C  0.51725489  0.98040572  0.71220994    -0.52800
C2447       C  0.99541146  0.51270735  0.72234596     0.10400
C2448       C  0.53139629  0.54948071  0.72893176     0.21300
C2449       C  0.55883851  0.54346714  0.69811353    -0.53500
C2450       C  0.54349604  0.57347595  0.71104598     0.10500
C2451       C  0.59361187  0.99692385  0.72098031    -0.53000
C2452       C  0.57841937  0.52538377  0.73416812     0.11100
H2453       H  0.00047809  0.95030161  0.70705502     0.15600
H2454       H  0.51830013  0.57207808  0.73976642     0.01300
H2455       H  0.56993782  0.55325903  0.68458775     0.15900
H2456       H  0.62571845  0.97909736  0.72191823     0.15700
In2457     In  0.84955728  0.75338545  0.61895806     1.36900
C2458       C  0.86107358  0.76237728  0.65395556     0.78600
O2459       O  0.81001505  0.81653878  0.61737026    -0.59900
O2460       O  0.77704363  0.75162782  0.62216409    -0.50800
C2461       C  0.83851861  0.75143451  0.58374853     0.71200
O2462       O  0.86367545  0.78124545  0.59132495    -0.45600
C2463       C  0.90756189  0.69044804  0.61401911     0.75900
O2464       O  0.88052313  0.78934382  0.64280488    -0.57500
O2465       O  0.86700227  0.68249201  0.61881060    -0.47600
O2466       O  0.83671193  0.73153091  0.64701385    -0.53900
C2467       C  0.77359679  0.79390240  0.61925086     0.86100
O2468       O  0.81968596  0.72285432  0.59425766    -0.55800
O2469       O  0.92007311  0.73166806  0.61324158    -0.59100
In2470     In  0.88755439  0.99266338  0.60069291     1.36900
C2471       C  0.88687307  0.99604701  0.63645050     0.78600
O2472       O  0.94914814  0.53605950  0.60158192    -0.59900
O2473       O  0.88268718  0.56499210  0.59696004    -0.50800
C2474       C  0.88989845  0.97334119  0.56597570     0.71200
O2475       O  0.91742647  0.95425741  0.57701857    -0.45600
C2476       C  0.81916961  0.94140887  0.60493862     0.75900
O2477       O  0.91686771  0.97301232  0.62793327    -0.57500
O2478       O  0.81564202  0.48337095  0.60141860    -0.47600
O2479       O  0.85894528  0.51727121  0.62660219    -0.53900
C2480       C  0.92453273  0.57111604  0.59980582     0.86100
O2481       O  0.86441654  0.00339814  0.57268640    -0.55800
O2482       O  0.85873579  0.92444829  0.60518878    -0.59100
In2483     In  0.61573243  0.95988926  0.61971166     1.36900
C2484       C  0.61010410  0.94615552  0.58447948     0.78600
O2485       O  0.54971035  0.49230716  0.61475408    -0.59900
O2486       O  0.61008547  0.53280199  0.61872791    -0.50800
C2487       C  0.59917596  0.95171470  0.65484248     0.71200
O2488       O  0.58156178  0.92449789  0.64336233    -0.45600
C2489       C  0.69695804  0.92942090  0.61848771     0.75900
O2490       O  0.58798654  0.92128128  0.59562948    -0.57500
O2491       O  0.68876646  0.47133849  0.61962696    -0.47600
O2492       O  0.63418269  0.97690245  0.59148150    -0.53900
C2493       C  0.56832713  0.53094713  0.61484442     0.86100
O2494       O  0.62562254  0.48088021  0.64835439    -0.55800
O2495       O  0.66353821  0.90265672  0.61951181    -0.59100
In2496     In  0.58274733  0.73568330  0.60223414     1.36900
C2497       C  0.56864511  0.74536783  0.56712483     0.78600
O2498       O  0.61252063  0.80414005  0.60661954    -0.59900
O2499       O  0.65513978  0.74527634  0.60292833    -0.50800
C2500       C  0.57287026  0.73071254  0.63775448     0.71200
O2501       O  0.54572113  0.75444372  0.62809319    -0.45600
C2502       C  0.55448729  0.65439898  0.60192584     0.75900
O2503       O  0.54313711  0.76532041  0.57865759    -0.57500
O2504       O  0.59599396  0.66400384  0.59981980    -0.47600
O2505       O  0.60087532  0.72260545  0.57372480    -0.53900
C2506       C  0.65192812  0.78700872  0.60656587     0.86100
O2507       O  0.60444635  0.71117895  0.62921463    -0.55800
O2508       O  0.52669174  0.68700587  0.60301090    -0.59100
C2509       C  0.80757551  0.49123698  0.76596468     0.87500
C2510       C  0.84077118  0.49447169  0.75039220    -0.52800
C2511       C  0.82801676  0.52466831  0.73732646     0.10400
C2512       C  0.78078225  0.54951732  0.74182157     0.21300
C2513       C  0.80354889  0.54050137  0.77305769    -0.53500
C2514       C  0.79102603  0.57196835  0.76012017     0.10500
C2515       C  0.76290451  0.47900026  0.75677793    -0.53000
C2516       C  0.74285506  0.51370480  0.74743590     0.11100
H2517       H  0.87203736  0.97554299  0.74983749     0.15600
H2518       H  0.76956040  0.57296308  0.73095130     0.01300
H2519       H  0.81237538  0.54893216  0.78698662     0.15900
H2520       H  0.74384287  0.94947734  0.76124630     0.15700
C2521       C  0.64026919  0.52833519  0.78070192     0.87500
C2522       C  0.68281481  0.00963659  0.77222578    -0.52800
C2523       C  0.69489688  0.52551472  0.75517829     0.10400
C2524       C  0.65775278  0.55987668  0.74817954     0.21300
C2525       C  0.64704262  0.57908151  0.78030381    -0.53500
C2526       C  0.65510326  0.59689259  0.76341672     0.10500
C2527       C  0.60190949  0.01898521  0.76698022    -0.53000
C2528       C  0.61008749  0.53554733  0.74989841     0.11100
H2529       H  0.70393555  0.98784043  0.78056590     0.15600
H2530       H  0.66467570  0.57290926  0.73428548     0.01300
H2531       H  0.64479551  0.59884950  0.79271505     0.15900
H2532       H  0.57158231  0.00000129  0.77041896     0.15700
C2533       C  0.63718302  0.72698804  0.76715487     0.87500
C2534       C  0.60524230  0.72442110  0.75110559    -0.52800
C2535       C  0.61899131  0.69498002  0.73793390     0.10400
C2536       C  0.66609669  0.67043939  0.74257708     0.21300
C2537       C  0.64128665  0.67755980  0.77369457    -0.53500
C2538       C  0.65510638  0.64708813  0.76059877     0.10500
C2539       C  0.68274719  0.73982651  0.75874106    -0.53000
C2540       C  0.70332800  0.70627725  0.74873128     0.11100
H2541       H  0.57348886  0.74293224  0.75043634     0.15600
H2542       H  0.67799189  0.64748168  0.73164037     0.01300
H2543       H  0.63125555  0.66826591  0.78740138     0.15900
H2544       H  0.70091003  0.76932178  0.76370976     0.15700
C2545       C  0.80931112  0.69094336  0.78009092     0.87500
C2546       C  0.76619378  0.71060922  0.77224757    -0.52800
C2547       C  0.75231393  0.69458148  0.75547794     0.10400
C2548       C  0.78833973  0.65944184  0.74800888     0.21300
C2549       C  0.80159824  0.64007253  0.77997975    -0.53500
C2550       C  0.79161499  0.62227544  0.76320332     0.10500
C2551       C  0.84635882  0.69950574  0.76600584    -0.53000
C2552       C  0.83674196  0.68265558  0.74915315     0.11100
H2553       H  0.74636721  0.73288072  0.78085671     0.15600
H2554       H  0.78011017  0.64671399  0.73420085     0.01300
H2555       H  0.80533373  0.62022772  0.79231664     0.15900
H2556       H  0.87742593  0.71773526  0.76903197     0.15700
C2557       C  0.84959738  0.77603300  0.95418968     0.87500
C2558       C  0.83510741  0.82127006  0.96237336    -0.52800
C2559       C  0.86761739  0.84313630  0.97251551     0.10400
C2560       C  0.90431120  0.80705582  0.97895787     0.21300
C2561       C  0.89907981  0.78135725  0.94788955    -0.53500
C2562       C  0.92869731  0.79624419  0.96107349     0.10500
C2563       C  0.85221300  0.74452370  0.97028204    -0.53000
C2564       C  0.88046236  0.75946025  0.98362328     0.11100
H2565       H  0.80509635  0.83826650  0.95724094     0.15600
H2566       H  0.92652972  0.81973887  0.99000384     0.01300
H2567       H  0.90915286  0.77116318  0.93429291     0.15900
H2568       H  0.83426899  0.71240647  0.97096173     0.15700
C2569       C  0.88003451  0.94850722  0.94075562     0.87500
C2570       C  0.86936533  0.98599359  0.95452349    -0.52800
C2571       C  0.88593883  0.97814594  0.97164673     0.10400
C2572       C  0.91080756  0.93051707  0.97333256     0.21300
C2573       C  0.93111891  0.94278836  0.94140310    -0.53500
C2574       C  0.94848690  0.93434964  0.95842352     0.10500
C2575       C  0.86178605  0.90515120  0.94882607    -0.53000
C2576       C  0.87753321  0.89260750  0.96580003     0.11100
H2577       H  0.85016411  0.01613657  0.95105405     0.15600
H2578       H  0.92345061  0.92341050  0.98726710     0.01300
H2579       H  0.95130251  0.94598882  0.92913379     0.15900
H2580       H  0.84100130  0.88396808  0.94012792     0.15700
C2581       C  0.57863203  0.95414814  0.95591497     0.87500
C2582       C  0.59213432  0.90878028  0.96417036    -0.52800
C2583       C  0.55878019  0.88703764  0.97385379     0.10400
C2584       C  0.52173011  0.92328420  0.97993517     0.21300
C2585       C  0.52953075  0.94949441  0.94903141    -0.53500
C2586       C  0.49871674  0.93470905  0.96177234     0.10500
C2587       C  0.57519050  0.98539703  0.97210234    -0.53000
C2588       C  0.54577990  0.97052168  0.98510297     0.11100
H2589       H  0.62254688  0.89173413  0.95945816     0.15600
H2590       H  0.49850221  0.91057428  0.99064492     0.01300
H2591       H  0.52057159  0.95996064  0.93534202     0.15900
H2592       H  0.59326753  0.01739244  0.97303867     0.15700
C2593       C  0.54872620  0.78174224  0.94190880     0.87500
C2594       C  0.55753297  0.74410318  0.95580427    -0.52800
C2595       C  0.53958948  0.75237231  0.97265999     0.10400
C2596       C  0.51518694  0.80020006  0.97398490     0.21300
C2597       C  0.49782018  0.78828071  0.94178926    -0.53500
C2598       C  0.47902579  0.79681994  0.95850494     0.10500
C2599       C  0.56694815  0.82480674  0.95027672    -0.53000
C2600       C  0.54954381  0.83763093  0.96698340     0.11100
H2601       H  0.57655283  0.71364439  0.95264268     0.15600
H2602       H  0.50138108  0.80743779  0.98772466     0.01300
H2603       H  0.47874420  0.78535250  0.92922808     0.15900
H2604       H  0.58895328  0.84562918  0.94190322     0.15700
In2605     In  0.61835719  0.00415994  0.87117661     1.36900
C2606       C  0.62359227  0.98610528  0.90623634     0.78600
O2607       O  0.67615860  0.55156116  0.87246469    -0.59900
O2608       O  0.60745589  0.57648777  0.87393067    -0.50800
C2609       C  0.63037735  0.00383131  0.83555976     0.71200
O2610       O  0.65651960  0.98111312  0.84602989    -0.45600
C2611       C  0.54842185  0.95527191  0.86488819     0.75900
O2612       O  0.65226301  0.96938731  0.89508733    -0.57500
O2613       O  0.54575798  0.49718543  0.86836135    -0.47600
O2614       O  0.59368895  0.01134241  0.89931647    -0.53900
C2615       C  0.64939630  0.58505941  0.87296821     0.86100
O2616       O  0.60030420  0.52669297  0.84346675    -0.55800
O2617       O  0.58726381  0.93712989  0.86593612    -0.59100
In2618     In  0.84250597  0.96154020  0.85068488     1.36900
C2619       C  0.82998293  0.94771120  0.81577091     0.78600
O2620       O  0.77361573  0.49120166  0.85464005    -0.59900
O2621       O  0.83196476  0.53381652  0.84977355    -0.50800
C2622       C  0.84591714  0.95565119  0.88646459     0.71200
O2623       O  0.82345572  0.92667749  0.87714528    -0.45600
C2624       C  0.92548719  0.93665857  0.85062110     0.75900
O2625       O  0.81238477  0.92068082  0.82740396    -0.57500
O2626       O  0.91397694  0.47760140  0.84842569    -0.47600
O2627       O  0.85309927  0.47985416  0.82223779    -0.53900
C2628       C  0.79026804  0.53076150  0.85348635     0.86100
O2629       O  0.86508236  0.98661246  0.87743813    -0.55800
O2630       O  0.89400760  0.90750622  0.85155106    -0.59100
In2631     In  0.58381972  0.77262669  0.85182263     1.36900
C2632       C  0.60219043  0.77567335  0.81662760     0.78600
O2633       O  0.65203748  0.74601456  0.85828253    -0.59900
O2634       O  0.59534407  0.70068715  0.85331228    -0.50800
C2635       C  0.58021926  0.77601507  0.88756785     0.71200
O2636       O  0.60344774  0.80499854  0.87851910    -0.45600
C2637       C  0.50402795  0.80661969  0.85240568     0.75900
O2638       O  0.61961389  0.80442675  0.82760250    -0.57500
O2639       O  0.51112862  0.76482614  0.84974940    -0.47600
O2640       O  0.57470826  0.74785981  0.82367343    -0.53900
C2641       C  0.63622789  0.70596229  0.85822440     0.86100
O2642       O  0.55919397  0.74663830  0.87824856    -0.55800
O2643       O  0.53843027  0.83250661  0.85288877    -0.59100
In2644     In  0.81827362  0.73117885  0.86920558     1.36900
C2645       C  0.80767987  0.74310072  0.90425391     0.78600
O2646       O  0.75729251  0.68884437  0.86581804    -0.59900
O2647       O  0.82282974  0.65792026  0.87066827    -0.50800
C2648       C  0.81931079  0.72706608  0.83371885     0.71200
O2649       O  0.78857163  0.74932754  0.84213124    -0.45600
C2650       C  0.88369595  0.78771901  0.86635830     0.75900
O2651       O  0.78254730  0.76394868  0.89284029    -0.57500
O2652       O  0.88996906  0.74614074  0.86998613    -0.47600
O2653       O  0.83585039  0.71537487  0.89759338    -0.53900
C2654       C  0.78111687  0.65311507  0.86691509     0.86100
O2655       O  0.84948172  0.70859285  0.84352082    -0.55800
O2656       O  0.84298635  0.80153202  0.86544794    -0.59100
C2657       C  0.92147735  0.81519749  0.86179139    -0.12300
C2658       C  0.95944106  0.82120842  0.85661449    -0.13800
C2659       C  0.76412651  0.60943498  0.86254809    -0.12300
C2660       C  0.76608966  0.57079074  0.85773811    -0.13800
C2661       C  0.66394721  0.63028120  0.87039651    -0.12300
C2662       C  0.66044143  0.66818570  0.86492445    -0.13800
C2663       C  0.97148312  0.92600755  0.85385358    -0.12300
C2664       C  0.00944580  0.93155712  0.85898052    -0.13800
C2665       C  0.57632736  0.77592391  0.90720577    -0.12300
C2666       C  0.56676728  0.77504638  0.92328012    -0.13800
C2667       C  0.60840754  0.96836839  0.94075834    -0.12300
C2668       C  0.62211064  0.97619035  0.92550244    -0.13800
C2669       C  0.86266063  0.95477820  0.92196296    -0.12300
C2670       C  0.85160965  0.95405851  0.90602902    -0.13800
C2671       C  0.82102472  0.76116442  0.93880348    -0.12300
C2672       C  0.80815404  0.75238804  0.92354068    -0.13800
C2673       C  0.81931418  0.72041746  0.81429337    -0.12300
C2674       C  0.81815630  0.70886416  0.79849574    -0.13800
C2675       C  0.61415605  0.77149590  0.79752552    -0.12300
C2676       C  0.62337278  0.75666326  0.78251800    -0.13800
C2677       C  0.63371325  0.00471273  0.81588428    -0.12300
C2678       C  0.63405715  0.51186107  0.79962755    -0.13800
C2679       C  0.82313602  0.94582099  0.79636560    -0.12300
C2680       C  0.81874063  0.46009539  0.78104030    -0.13800
C2681       C  0.54166253  0.60902930  0.60482983    -0.12300
C2682       C  0.54546105  0.57069279  0.60957642    -0.13800
C2683       C  0.74156711  0.91454536  0.61480984    -0.12300
C2684       C  0.77997307  0.91696909  0.60987755    -0.13800
C2685       C  0.73013925  0.81266619  0.61632286    -0.12300
C2686       C  0.69145107  0.81096143  0.61164497    -0.13800
C2687       C  0.93502148  0.65378439  0.60823864    -0.12300
C2688       C  0.94024802  0.61578187  0.60301453    -0.13800
C2689       C  0.58819945  0.95262907  0.67402804    -0.12300
C2690       C  0.57868667  0.46519774  0.68929079    -0.13800
C2691       C  0.88440920  0.99939952  0.65606663    -0.12300
C2692       C  0.88266514  0.50803741  0.67216730    -0.13800
C2693       C  0.56638593  0.71182447  0.67290045    -0.12300
C2694       C  0.56831444  0.72390557  0.65713714    -0.13800
C2695       C  0.87348198  0.75234973  0.68898618    -0.12300
C2696       C  0.86740083  0.76390979  0.67337903    -0.13800
C2697       C  0.56404567  0.74870023  0.54759914    -0.12300
C2698       C  0.57449191  0.75125058  0.53166505    -0.13800
C2699       C  0.61014435  0.94025657  0.56501956    -0.12300
C2700       C  0.61877201  0.93808133  0.54893077    -0.13800
C2701       C  0.83015805  0.75067443  0.56443558    -0.12300
C2702       C  0.81923344  0.75238667  0.54857998    -0.13800
C2703       C  0.88379276  0.96009364  0.54723750    -0.12300
C2704       C  0.86682954  0.95012311  0.53275927    -0.13800
C2705       C  0.79969900  0.50511170  0.04669497    -0.12300
C2706       C  0.81317264  0.51347129  0.03146019    -0.13800
C2707       C  0.55979977  0.52546702  0.05054224    -0.12300
C2708       C  0.57165582  0.52655223  0.06639507    -0.13800
C2709       C  0.95486916  0.56491357  0.11575874    -0.12300
C2710       C  0.91710946  0.55995025  0.11022226    -0.13800
C2711       C  0.61047519  0.71423314  0.03244181    -0.12300
C2712       C  0.62541769  0.72285463  0.04742034    -0.13800
C2713       C  0.65932802  0.87688524  0.10752504    -0.12300
C2714       C  0.65705183  0.91467756  0.11325024    -0.13800
C2715       C  0.86095461  0.71019595  0.04890929    -0.12300
C2716       C  0.84955952  0.71224078  0.06474445    -0.13800
C2717       C  0.00767654  0.67392636  0.10966956    -0.12300
C2718       C  0.96919469  0.66963078  0.11437142    -0.13800
C2719       C  0.76407145  0.82214096  0.11341358    -0.12300
C2720       C  0.75996820  0.85982211  0.10778112    -0.13800
C2721       C  0.62972077  0.76391021  0.17247785    -0.12300
C2722       C  0.62844232  0.75434649  0.15645108    -0.13800
C2723       C  0.60650573  0.02540068  0.17622569    -0.12300
C2724       C  0.61576777  0.00978168  0.19106989    -0.13800
C2725       C  0.82007535  0.71552942  0.18990244    -0.12300
C2726       C  0.82688800  0.70302009  0.17444532    -0.13800
C2727       C  0.80665219  0.97256000  0.15633581    -0.12300
C2728       C  0.80710178  0.96155643  0.17226662    -0.13800
C2729       C  0.55154182  0.81301838  0.35975248    -0.12300
C2730       C  0.54713358  0.85113374  0.36470364    -0.13800
C2731       C  0.72816131  0.05490589  0.35725643    -0.12300
C2732       C  0.68955384  0.05340994  0.36202411    -0.13800
C2733       C  0.78414983  0.66150198  0.35964267    -0.12300
C2734       C  0.74612807  0.65635339  0.35441938    -0.13800
C2735       C  0.94274065  0.86441769  0.36721965    -0.12300
C2736       C  0.93702016  0.90221510  0.36181169    -0.13800
C2737       C  0.55716518  0.97409368  0.31538055    -0.12300
C2738       C  0.55590751  0.96146650  0.29969246    -0.13800
C2739       C  0.86955177  0.00409475  0.28208462    -0.12300
C2740       C  0.86426230  0.01453059  0.29791208    -0.13800
C2741       C  0.57578764  0.71359408  0.28190166    -0.12300
C2742       C  0.58660392  0.69793836  0.29655999    -0.13800
C2743       C  0.88016462  0.76154579  0.29968336    -0.12300
C2744       C  0.88191163  0.75321793  0.31583866    -0.13800
C2745       C  0.57475703  0.49951636  0.43998849    -0.12300
C2746       C  0.56179899  0.49520232  0.42445368    -0.13800
C2747       C  0.62020429  0.68692794  0.42201406    -0.12300
C2748       C  0.61238972  0.68696695  0.40577681    -0.13800
C2749       C  0.88234078  0.71188862  0.42470783    -0.12300
C2750       C  0.86641188  0.70108587  0.43929556    -0.13800
C2751       C  0.82239730  0.50390207  0.42347099    -0.12300
C2752       C  0.83429064  0.50234637  0.40768387    -0.13800
loop_ 
_geom_bond_atom_site_label_1 
_geom_bond_atom_site_label_2 
_geom_bond_distance 
_geom_bond_site_symmetry_2 
_ccdc_geom_bond_type 
C1            C2   1.525   1_545  S
C1            C7   1.513       .  S
C1            C5   1.519       .  S
C1          C687   1.477       .  S
C2            C3   1.362       .  D
C2          H697   1.086       .  S
C3            C4   1.591   1_565  S
C3          C987   1.511       .  S
C4            C8   1.586       .  S
C4            C6   1.565       .  S
C4           H10   1.107       .  S
C5            C6   1.370       .  D
C5           H11   1.083       .  S
C6           C42   1.504       .  S
C7            C8   1.380       .  D
C7           H12   1.084       .  S
C8           C15   1.568       .  S
H9          C690   1.086       .  S
C13          C14   1.527       .  S
C13          C19   1.505       .  S
C13          C17   1.542       .  S
C13         C686   1.477       .  S
C14          C15   1.375       .  D
C14          H21   1.086       .  S
C15          C16   1.591       .  S
C16          C20   1.606       .  S
C16          C18   1.528       .  S
C16          H22   1.107       .  S
C17          C18   1.378       .  D
C17          H23   1.083       .  S
C18          C30   1.498       .  S
C19          C20   1.357       .  D
C19          H24   1.087       .  S
C20         C316   1.507       .  S
C25          C26   1.532       .  S
C25          C31   1.511       .  S
C25          C29   1.516       .  S
C25         C683   1.480       .  S
C26          C27   1.367       .  D
C26          H33   1.086       .  S
C27          C28   1.585       .  S
C27         C335   1.513       .  S
C28          C32   1.580       .  S
C28          C30   1.564       .  S
C28          H34   1.107       .  S
C29          C30   1.368       .  D
C29          H35   1.083       .  S
C31          C32   1.383       .  D
C31          H36   1.084       .  S
C32          C39   1.564       .  S
C37          C38   1.523       .  S
C37          C43   1.505   1_545  S
C37          C41   1.547       .  S
C37         C681   1.472   1_545  S
C38          C39   1.368       .  D
C38          H45   1.087       .  S
C39          C40   1.594       .  S
C40          C44   1.610   1_545  S
C40          C42   1.528       .  S
C40          H46   1.107       .  S
C41          C42   1.377       .  D
C41          H47   1.083       .  S
C43          C44   1.361       .  D
C43         H736   1.087       .  S
C44        C1016   1.508       .  S
H48         C731   1.087       .  S
C49          C50   1.512       .  S
C49          C55   1.531       .  S
C49          C53   1.514       .  S
C49         C679   1.477       .  S
C50          C51   1.379       .  D
C50          H57   1.082       .  S
C51          C52   1.588       .  S
C51          C68   1.567       .  S
C52          C56   1.587       .  S
C52          C54   1.560       .  S
C52          H58   1.108       .  S
C53          C54   1.369       .  D
C53          H59   1.082       .  S
C54          C78   1.499       .  S
C55          C56   1.367       .  D
C55          H60   1.086       .  S
C56         C168   1.514       .  S
C61          C62   1.506       .  S
C61          C67   1.527       .  S
C61          C65   1.544       .  S
C61         C677   1.481       .  S
C62          C63   1.359       .  D
C62          H69   1.087       .  S
C63          C64   1.606       .  S
C63         C187   1.511       .  S
C64          C66   1.528       .  S
C64        C1444   1.590   1_455  S
C64          H70   1.107       .  S
C65          C66   1.378       .  D
C65          H71   1.083       .  S
C66          C90   1.500       .  S
C67        C1444   1.376   1_455  D
C67        H1448   1.086   1_455  S
C68        C1440   1.590       .  S
C68        C1443   1.376       .  D
H72        C1443   1.086       .  S
C73          C74   1.504       .  S
C73          C79   1.527       .  S
C73          C77   1.540       .  S
C73         C675   1.475       .  S
C74          C75   1.361       .  D
C74          H81   1.087       .  S
C75          C76   1.614       .  S
C75         C151   1.511       .  S
C76          C80   1.592       .  S
C76          C78   1.528       .  S
C76          H82   1.107       .  S
C77          C78   1.373       .  D
C77          H83   1.082       .  S
C79          C80   1.373       .  D
C79          H84   1.087       .  S
C80          C87   1.567       .  S
C85          C86   1.507       .  S
C85          C91   1.530       .  S
C85          C89   1.518       .  S
C85         C674   1.476       .  S
C86        C1463   1.379   1_455  D
C86        H1469   1.085   1_455  S
C87        C1464   1.586       .  S
C87        C1462   1.379       .  D
C88          C92   1.584       .  S
C88          C90   1.567       .  S
C88        C1463   1.586   1_455  S
C88          H94   1.107       .  S
C89          C90   1.370       .  D
C89          H95   1.083       .  S
C91          C92   1.365       .  D
C91          H96   1.086       .  S
C92         C180   1.511       .  S
H93        C1462   1.085       .  S
In97         O99   2.224       .  S
In97        O100   2.159       .  S
In97        O108   2.206       .  S
In97        O102   2.241       .  S
In97        O104   2.251       .  S
In97        O105   2.155       .  S
In97        O106   2.195       .  S
In97        O109   2.216       .  S
C98         O104   1.278       .  A
C98         O106   1.266       .  A
C98         C685   1.442       .  S
O99         C107   1.273       .  A
O100        C107   1.268       .  A
C101        O108   1.269       .  A
C101        O102   1.280       .  A
C101        C680   1.442       .  S
C103        O105   1.271       .  A
C103        O109   1.274       .  A
C103        C669   1.417       .  S
C107        C671   1.419       .  S
In110       O112   2.220       .  S
In110       O113   2.156       .  S
In110       O121   2.209       .  S
In110       O117   2.249       .  S
In110       O118   2.161       .  S
In110       O119   2.199       .  S
In110       O803   2.240       .  S
In110       O810   2.198       .  S
C111        O117   1.277       .  A
C111        O119   1.267       .  A
C111        C676   1.442       .  S
O112        C120   1.273       .  A
O113        C120   1.269       .  A
C114        O121   1.269       .  A
C114        O803   1.279       .  A
C114       C1376   1.442       .  S
O115       In798   2.241       .  S
O115        C802   1.279       .  A
C116        O118   1.271       .  A
C116        O810   1.272       .  A
C116        C667   1.414       .  S
C120        C672   1.418       .  S
O122       In798   2.198       .  S
O122        C804   1.272       .  A
In123       O125   2.213       .  S
In123       O126   2.177       .  S
In123       O134   2.201       .  S
In123       O128   2.269       .  S
In123       O130   2.271       .  S
In123       O131   2.163       .  S
In123       O132   2.203       .  S
In123       O135   2.210       .  S
C124        O130   1.279       .  A
C124        O132   1.261       .  A
C124        C684   1.444       .  S
O125        C133   1.267       .  A
O126        C133   1.264       .  A
C127        O134   1.261       .  A
C127        O128   1.276       .  A
C127        C678   1.444       .  S
C129        O131   1.266       .  A
C129        O135   1.267       .  A
C129        C665   1.409       .  S
C133        C670   1.420       .  S
In136       O138   2.186       .  S
In136       O139   2.176       .  S
In136       O147   2.191       .  S
In136       O141   2.266       .  S
In136       O144   2.153       .  S
In136       O145   2.186       .  S
In136       O831   2.267       .  S
In136       O836   2.232       .  S
C137        O145   1.259       .  A
C137        O831   1.276       .  A
C137       C1370   1.436       .  S
O138        C146   1.265       .  A
O139        C146   1.265       .  A
C140        O147   1.259       .  A
C140        O141   1.279       .  A
C140        C673   1.438       .  S
C142        O144   1.262       .  A
C142        O836   1.269       .  A
C142        C668   1.411       .  S
O143       In824   2.267   1_545  S
O143        C825   1.276   1_545  A
C146        C666   1.410       .  S
O148       In824   2.232   1_545  S
O148        C830   1.269       .  A
C149        C150   1.533       .  S
C149        C155   1.511       .  S
C149        C153   1.518       .  S
C149        C664   1.480       .  S
C150        C151   1.367       .  D
C150        H157   1.086       .  S
C151        C152   1.582       .  S
C152        C156   1.585       .  S
C152        C154   1.562       .  S
C152        H158   1.107       .  S
C153        C154   1.371       .  D
C153        H159   1.083       .  S
C154        C166   1.500       .  S
C155        C156   1.379       .  D
C155        H160   1.083       .  S
C156        C175   1.567       .  S
C161        C162   1.527       .  S
C161        C167   1.504       .  S
C161        C165   1.543       .  S
C161        C661   1.474       .  S
C162        C163   1.373       .  D
C162        H169   1.086       .  S
C163        C164   1.591       .  S
C163        C192   1.568       .  S
C164        C168   1.613       .  S
C164        C166   1.530       .  S
C164        H170   1.107       .  S
C165        C166   1.375       .  D
C165        H171   1.083       .  S
C167        C168   1.359       .  D
C167        H172   1.087       .  S
C173        C174   1.527       .  S
C173        C179   1.505       .  S
C173        C177   1.545       .  S
C173        C660   1.481       .  S
C174        C175   1.374       .  D
C174        H181   1.087       .  S
C175        C176   1.591       .  S
C176        C180   1.608       .  S
C176        C178   1.525       .  S
C176        H182   1.107       .  S
C177        C178   1.379       .  D
C177        H183   1.083       .  S
C178        C190   1.500       .  S
C179        C180   1.360       .  D
C179        H184   1.087       .  S
C185        C186   1.530       .  S
C185        C191   1.511       .  S
C185        C189   1.515       .  S
C185        C657   1.475       .  S
C186        C187   1.365       .  D
C186        H193   1.086       .  S
C187        C188   1.585       .  S
C188        C192   1.586       .  S
C188        C190   1.567       .  S
C188        H194   1.108       .  S
C189        C190   1.367       .  D
C189        H195   1.083       .  S
C191        C192   1.380       .  D
C191        H196   1.083       .  S
In197       O199   2.217       .  S
In197       O200   2.155       .  S
In197       O208   2.189       .  S
In197       O202   2.252       .  S
In197       O204   2.248       .  S
In197       O205   2.166       .  S
In197       O206   2.203       .  S
In197       O209   2.209       .  S
C198        O204   1.279       .  A
C198        O206   1.266       .  A
C198        C652   1.441       .  S
O199        C207   1.271       .  A
O200        C207   1.268       .  A
C201        O208   1.264       .  A
C201        O202   1.277       .  A
C201        C662   1.438       .  S
C203        O205   1.268       .  A
C203        O209   1.270       .  A
C203        C654   1.416       .  S
C207        C655   1.412       .  S
In210       O212   2.221       .  S
In210       O213   2.167       .  S
In210       O221   2.199       .  S
In210       O215   2.251       .  S
In210       O217   2.262       .  S
In210       O218   2.181       .  S
In210       O219   2.192       .  S
In210       O222   2.201       .  S
C211        O217   1.276       .  A
C211        O219   1.262       .  A
C211        C648   1.440       .  S
O212        C220   1.268       .  A
O213        C220   1.267       .  A
C214        O221   1.264       .  A
C214        O215   1.279       .  A
C214        C658   1.438       .  S
C216        O218   1.267       .  A
C216        O222   1.268       .  A
C216        C649   1.418       .  S
C220       C2029   1.415       .  S
In223       O226   2.165       .  S
In223       O234   2.204       .  S
In223       O231   2.148       .  S
In223       O232   2.197       .  S
In223       O235   2.222       .  S
In223       O913   2.213       .  S
In223       O916   2.268       .  S
In223       O918   2.265       .  S
C224        O232   1.263       .  A
C224        O918   1.278       .  A
C224        C659   1.445       .  S
O225       In911   2.213       .  S
O225        C233   1.270   1_455  A
O226        C921   1.267   1_455  A
C227        O228   1.282       .  A
C227        O922   1.264   1_545  A
C227        C644   1.447       .  S
O228       In911   2.268       .  S
C229        O231   1.267       .  A
C229        O235   1.272       .  A
C229        C650   1.412       .  S
O230       In911   2.265       .  S
O230        C912   1.278       .  A
C233        O914   1.267   1_655  A
C233       C2021   1.418       .  S
O234        C915   1.263       .  A
In236       O239   2.164       .  S
In236       O247   2.203       .  S
In236       O244   2.162       .  S
In236       O245   2.198       .  S
In236       O248   2.200       .  S
In236       O926   2.217       .  S
In236       O929   2.254       .  S
In236       O931   2.257       .  S
C237        O243   1.277   1_565  A
C237        O933   1.264       .  A
C237        C641   1.442   1_565  S
O238       In924   2.217   1_545  S
O238        C246   1.271       .  A
O239        C934   1.269       .  A
C240        O247   1.266       .  A
C240        O929   1.281       .  A
C240        C663   1.444       .  S
O241       In924   2.253   1_545  S
O241        C928   1.281   1_545  A
C242        O244   1.269       .  A
C242        O248   1.270       .  A
C242        C656   1.414       .  S
O243       In924   2.257   1_545  S
O245        C925   1.265       .  A
C246        O927   1.269   1_545  A
C246        C646   1.417       .  S
C249        C250   1.506       .  S
C249        C255   1.526       .  S
C249        C253   1.548       .  S
C249        C647   1.477       .  S
C250        C251   1.360   1_554  D
C250        H257   1.087       .  S
C251        C252   1.609       .  S
C251        C531   1.514       .  S
C252        C256   1.592       .  S
C252        C254   1.528   1_456  S
C252        H258   1.106   1_455  S
C253        C254   1.378   1_455  D
C253        H259   1.083       .  S
C254       C1642   1.502       .  S
C255        C256   1.373   1_554  D
C255        H260   1.087       .  S
C256        C287   1.567   1_556  S
C261        C262   1.516       .  S
C261        C267   1.527       .  S
C261        C265   1.520       .  S
C261        C651   1.477       .  S
C262        C263   1.381       .  D
C262        H269   1.082       .  S
C263        C264   1.584   1_554  S
C263        C280   1.571   1_554  S
C264        C268   1.585       .  S
C264        C266   1.566   1_556  S
C264        H270   1.107       .  S
C265        C266   1.370       .  D
C265        H271   1.083       .  S
C266       C1630   1.502       .  S
C267        C268   1.363   1_554  D
C267        H272   1.086       .  S
C268        C500   1.508       .  S
C273        C274   1.508   1_545  S
C273        C279   1.526       .  S
C273        C277   1.542       .  S
C273        C642   1.477       .  S
C274        C275   1.360   1_564  D
C274        H969   1.087   1_554  S
C275        C276   1.613       .  S
C275       C1195   1.521   1_545  S
C276        C280   1.595       .  S
C276        C278   1.529   1_556  S
C276        H282   1.107       .  S
C277        C278   1.375       .  D
C277        H283   1.083       .  S
C278       C1666   1.499       .  S
C279        C280   1.374   1_554  D
C279        H284   1.086       .  S
H281        C962   1.087   1_556  S
C285        C286   1.510       .  S
C285        C291   1.534   1_545  S
C285        C289   1.518   1_455  S
C285        C643   1.483       .  S
C286        C287   1.379       .  D
C286        H293   1.084       .  S
C287        C288   1.584   1_554  S
C288        C292   1.583   1_556  S
C288        C290   1.564   1_456  S
C288        H294   1.107   1_455  S
C289        C290   1.371       .  D
C289        H295   1.083       .  S
C290       C1654   1.499       .  S
C291        C292   1.368   1_565  D
C291        H296   1.086       .  S
C292       C1212   1.513   1_544  S
C297        C298   1.507       .  S
C297        C303   1.526       .  S
C297        C301   1.544       .  S
C297        C640   1.477       .  S
C298        C299   1.358       .  D
C298        H305   1.087       .  S
C299        C300   1.606       .  S
C299        C691   1.511       .  S
C300        C304   1.591       .  S
C300        C302   1.527       .  S
C300        H306   1.107       .  S
C301        C302   1.379       .  D
C301        H307   1.083       .  S
C302        C326   1.497       .  S
C303        C304   1.373       .  D
C303        H308   1.086       .  S
C304        C311   1.567       .  S
C309        C310   1.515       .  S
C309        C315   1.524       .  S
C309        C313   1.515       .  S
C309        C638   1.472       .  S
C310        C311   1.381       .  D
C310        H317   1.083       .  S
C311        C312   1.584       .  S
C312        C316   1.589       .  S
C312        C314   1.563       .  S
C312        H318   1.107       .  S
C313        C314   1.370       .  D
C313        H319   1.082       .  S
C314        C338   1.499       .  S
C315        C316   1.361       .  D
C315        H320   1.086       .  S
C321        C322   1.510       .  S
C321        C327   1.529       .  S
C321        C325   1.516       .  S
C321        C636   1.474       .  S
C322        C323   1.383       .  D
C322        H329   1.084       .  S
C323        C324   1.581       .  S
C323        C340   1.566       .  S
C324        C328   1.584       .  S
C324        C326   1.565       .  S
C324        H330   1.107       .  S
C325        C326   1.367       .  D
C325        H331   1.083       .  S
C327        C328   1.364       .  D
C327        H332   1.086       .  S
C328        C732   1.509       .  S
C333        C334   1.509       .  S
C333        C339   1.524       .  S
C333        C337   1.542       .  S
C333        C634   1.474       .  S
C334        C335   1.365       .  D
C334        H341   1.087       .  S
C335        C336   1.611       .  S
C336        C340   1.594       .  S
C336        C338   1.527       .  S
C336        H342   1.107       .  S
C337        C338   1.373       .  D
C337        H343   1.083       .  S
C339        C340   1.369       .  D
C339        H344   1.088       .  S
C345        C346   1.524       .  S
C345        C351   1.504       .  S
C345        C349   1.541       .  S
C345        C631   1.470       .  S
C346        C347   1.372       .  D
C346        H353   1.087       .  S
C347        C348   1.593       .  S
C347        C364   1.566       .  S
C348        C352   1.609       .  S
C348        C350   1.528       .  S
C348        H354   1.107       .  S
C349        C350   1.374       .  D
C349        H355   1.083       .  S
C350        C374   1.499       .  S
C351        C352   1.360       .  D
C351        H356   1.087       .  S
C352        C488   1.507       .  S
C357        C358   1.527       .  S
C357        C363   1.510       .  S
C357        C361   1.518       .  S
C357        C629   1.478       .  S
C358        C359   1.364       .  D
C358        H365   1.086       .  S
C359        C360   1.589       .  S
C359        C471   1.513       .  S
C360        C362   1.564       .  S
C360       C1740   1.584       .  S
C360        H366   1.108       .  S
C361        C362   1.371       .  D
C361        H367   1.083       .  S
C362        C386   1.502       .  S
C363       C1740   1.381       .  D
C363       H1744   1.083   1_455  S
C364       C1736   1.584       .  S
C364       C1739   1.381       .  D
H368       C1739   1.083       .  S
C369        C373   1.515       .  S
C369       C1058   1.529       .  S
C369       C1063   1.512       .  S
C369        C628   1.477       .  S
C370       C1057   1.529       .  S
C370       C1059   1.366       .  D
C370        H377   1.086       .  S
C371        C372   1.591       .  S
C371       C1058   1.366       .  D
C371        C447   1.515       .  S
C372        C376   1.586       .  S
C372        C374   1.561       .  S
C372        H378   1.107       .  S
C373        C374   1.368       .  D
C373        H379   1.082       .  S
C375       C1057   1.512       .  S
C375       C1064   1.380       .  D
C375        H380   1.082       .  S
C376       C1063   1.380       .  D
C376        C383   1.568       .  S
C381        C385   1.540   1_565  S
C381       C1070   1.524       .  S
C381       C1075   1.508       .  S
C381        C626   1.479       .  S
C382       C1069   1.524       .  S
C382       C2447   1.375   1_455  D
C382       H1765   1.085       .  S
C383       C1760   1.594       .  S
C383       C2446   1.375   1_545  D
C384        C388   1.607       .  S
C384        C386   1.532       .  S
C384       C1759   1.594   1_455  S
C384        H390   1.107       .  S
C385        C386   1.375       .  D
C385        H391   1.083       .  S
C387       C1069   1.508       .  S
C387       C1076   1.362       .  D
C387        H392   1.087       .  S
C388       C1075   1.362   1_545  D
C388        C464   1.514       .  S
H389       C1758   1.085       .  S
In393       O395   2.204       .  S
In393       O396   2.155       .  S
In393       O404   2.207       .  S
In393       O398   2.225       .  S
In393       O400   2.240       .  S
In393       O401   2.157       .  S
In393       O402   2.188       .  S
In393       O405   2.219       .  S
C394        O400   1.277       .  A
C394        O402   1.267       .  A
C394        C632   1.437       .  S
O395        C403   1.273       .  A
O396        C403   1.271       .  A
C397        O404   1.270       .  A
C397        O398   1.279       .  A
C397        C637   1.437       .  S
C399        O401   1.270       .  A
C399        O405   1.273       .  A
C399        C623   1.418       .  S
C403        C621   1.415       .  S
In406       O417   2.187       .  S
In406       O411   2.254       .  S
In406       O413   2.252       .  S
In406       O418   2.211       .  S
In406      O1096   2.221       .  S
In406      O1097   2.158       .  S
In406      O1102   2.147       .  S
In406      O1103   2.206       .  S
C407        O413   1.280       .  A
C407       O1103   1.266       .  A
C407        C627   1.443       .  S
O408      In1094   2.221   1_545  S
O408        C416   1.272       .  A
O409      In1094   2.158   1_545  S
O409        C416   1.266       .  A
C410        O417   1.264       .  A
C410        O411   1.278       .  A
C410        C639   1.440       .  S
C412        O418   1.272       .  A
C412       O1102   1.270       .  A
C412        C620   1.411       .  S
O414      In1094   2.146       .  S
O414       C1100   1.270       .  A
O415      In1094   2.206   1_545  S
O415       C1095   1.266   1_545  A
C416        C624   1.418       .  S
In419       O424   2.261       .  S
In419       O426   2.256       .  S
In419       O428   2.198       .  S
In419       O431   2.203       .  S
In419      O1109   2.210       .  S
In419      O1110   2.166       .  S
In419      O1118   2.205       .  S
In419      O1115   2.179       .  S
C420        O426   1.278       .  A
C420        O428   1.262       .  A
C420        C635   1.437       .  S
O421      In1107   2.210       .  S
O421        C429   1.266   1_565  A
O422      In1107   2.166   1_545  S
O422        C429   1.267       .  A
C423        O424   1.275       .  A
C423       O1118   1.262       .  A
C423        C625   1.443       .  S
C425        O431   1.266       .  A
C425       O1115   1.266       .  A
C425        C619   1.415       .  S
O427      In1107   2.179       .  S
O427       C1113   1.266       .  A
C429        C618   1.409       .  S
O430      In1107   2.205       .  S
O430       C1111   1.262       .  A
In432       O434   2.227       .  S
In432       O435   2.157       .  S
In432       O443   2.201       .  S
In432       O437   2.258       .  S
In432       O439   2.263       .  S
In432       O440   2.160       .  S
In432       O441   2.192       .  S
In432       O444   2.192       .  S
C433        O439   1.277       .  A
C433        O441   1.262       .  A
C433        C633   1.441       .  S
O434        C442   1.269       .  A
O435        C442   1.265       .  A
C436        O443   1.263       .  A
C436        O437   1.279       .  A
C436        C630   1.441       .  S
C438        O440   1.267       .  A
C438        O444   1.268       .  A
C438        C617   1.408       .  S
C442        C622   1.414       .  S
C445        C446   1.507       .  S
C445        C451   1.525       .  S
C445        C449   1.550   1_565  S
C445        C616   1.475       .  S
C446        C447   1.362   1_565  D
C446       H1141   1.087       .  S
C447        C448   1.611       .  S
C448        C452   1.594       .  S
C448        C450   1.526       .  S
C448        H454   1.106       .  S
C449        C450   1.378       .  D
C449        H455   1.083       .  S
C450        C486   1.503       .  S
C451        C452   1.368   1_565  D
C451       H1144   1.088       .  S
C452        C459   1.565       .  S
H453       C1134   1.087       .  S
H456       C1139   1.088       .  S
C457        C461   1.512       .  S
C457       C1146   1.512       .  S
C457       C1151   1.535       .  S
C457        C614   1.481       .  S
C458       C1145   1.512       .  S
C458       C1147   1.383       .  D
C458        H465   1.085       .  S
C459        C460   1.581       .  S
C459       C1146   1.383       .  D
C460        C464   1.585       .  S
C460        C462   1.565       .  S
C460        H466   1.107       .  S
C461        C462   1.365       .  D
C461        H467   1.083       .  S
C462        C474   1.497       .  S
C463       C1145   1.535       .  S
C463       C1152   1.369       .  D
C463        H468   1.086       .  S
C464       C1151   1.369       .  D
C469        C470   1.510       .  S
C469        C475   1.528       .  S
C469        C473   1.541       .  S
C469        C612   1.484       .  S
C470        C471   1.362       .  D
C470        H477   1.087       .  S
C471        C472   1.606       .  S
C472        C476   1.591       .  S
C472        C474   1.525       .  S
C472        H478   1.107       .  S
C473        C474   1.378       .  D
C473        H479   1.083       .  S
C475        C476   1.375       .  D
C475        H480   1.086       .  S
C476        C483   1.568       .  S
C481        C482   1.513       .  S
C481        C487   1.525       .  S
C481        C485   1.519       .  S
C481        C610   1.472       .  S
C482        C483   1.379       .  D
C482        H489   1.084       .  S
C483        C484   1.584       .  S
C484        C488   1.587       .  S
C484        C486   1.567       .  S
C484        H490   1.107       .  S
C485        C486   1.369       .  D
C485        H491   1.083       .  S
C487        C488   1.362       .  D
C487        H492   1.086       .  S
C493        C494   1.526       .  S
C493        C499   1.504       .  S
C493        C497   1.540       .  S
C493        C607   1.475       .  S
C494        C495   1.375       .  D
C494        H501   1.086       .  S
C495        C496   1.592       .  S
C495        C512   1.569       .  S
C496        C500   1.608       .  S
C496        C498   1.529       .  S
C496        H502   1.107       .  S
C497        C498   1.375       .  D
C497        H503   1.083       .  S
C498       C1910   1.498       .  S
C499        C500   1.359       .  D
C499        H504   1.087       .  S
C505        C506   1.531       .  S
C505        C511   1.509       .  S
C505        C509   1.519       .  S
C505        C605   1.482       .  S
C506        C507   1.367       .  D
C506        H513   1.086       .  S
C507        C508   1.592       .  S
C507        C963   1.521       .  S
C508        C512   1.588       .  S
C508        C510   1.563       .  S
C508        H514   1.108       .  S
C509        C510   1.372       .  D
C509        H515   1.083       .  S
C510       C1898   1.504       .  S
C511        C512   1.379       .  D
C511        H516   1.084       .  S
C517        C518   1.524       .  S
C517        C523   1.507       .  S
C517        C521   1.541       .  S
C517        C603   1.477       .  S
C518        C519   1.373       .  D
C518        H525   1.086       .  S
C519        C520   1.595       .  S
C519        C536   1.568       .  S
C520        C524   1.610       .  S
C520        C522   1.532   1_455  S
C520        H526   1.108   1_455  S
C521        C522   1.375   1_455  D
C521        H527   1.083       .  S
C522       C1886   1.504       .  S
C523        C524   1.362       .  D
C523        H528   1.087       .  S
C524        C980   1.513   1_556  S
C529        C530   1.530       .  S
C529        C535   1.511       .  S
C529        C533   1.516   1_455  S
C529        C602   1.479       .  S
C530        C531   1.366       .  D
C530        H537   1.086       .  S
C531        C532   1.590       .  S
C532        C536   1.585       .  S
C532        C534   1.561   1_455  S
C532        H538   1.107       .  S
C533        C534   1.369       .  D
C533        H539   1.083       .  S
C534       C1874   1.498       .  S
C535        C536   1.381       .  D
C535        H540   1.084       .  S
In541       O546   2.266       .  S
In541       O548   2.265       .  S
In541       O550   2.198       .  S
In541       O553   2.216       .  S
In541      O1231   2.208       .  S
In541      O1232   2.173       .  S
In541      O1240   2.206       .  S
In541      O1237   2.166       .  S
C542        O548   1.276       .  A
C542        O550   1.262       .  A
C542        C604   1.443       .  S
O543      In1229   2.208       .  S
O543        C551   1.267       .  A
O544      In1229   2.173       .  S
O544        C551   1.266       .  A
C545        O546   1.279       .  A
C545       O1240   1.263       .  A
C545        C613   1.446       .  S
C547        O553   1.269       .  A
C547       O1237   1.268       .  A
C547       C1976   1.415       .  S
O549      In1229   2.166   1_565  S
O549       C1235   1.268       .  A
C551        C597   1.415       .  S
O552      In1229   2.206       .  S
O552       C1233   1.263       .  A
In554       O565   2.200       .  S
In554       O559   2.266       .  S
In554       O561   2.271       .  S
In554       O566   2.206       .  S
In554      O1244   2.234       .  S
In554      O1245   2.158       .  S
In554      O1250   2.169       .  S
In554      O1251   2.178       .  S
C555        O561   1.278       .  A
C555       O1251   1.260       .  A
C555        C615   1.438       .  S
O556      In1242   2.234       .  S
O556        C564   1.270   1_565  A
O557      In1242   2.158   1_545  S
O557        C564   1.264       .  A
C558        O565   1.262       .  A
C558        O559   1.280       .  A
C558        C606   1.445       .  S
C560        O566   1.268       .  A
C560       O1250   1.266       .  A
C560        C599   1.415       .  S
O562      In1242   2.169       .  S
O562       C1248   1.266       .  A
O563      In1242   2.178       .  S
O563       C1243   1.260       .  A
C564        C596   1.416       .  S
In567       O569   2.214       .  S
In567       O570   2.155       .  S
In567       O578   2.206       .  S
In567       O572   2.254       .  S
In567       O574   2.269       .  S
In567       O575   2.164       .  S
In567       O576   2.205       .  S
In567       O579   2.221       .  S
C568        O574   1.278       .  A
C568        O576   1.264       .  A
C568        C611   1.449       .  S
O569        C577   1.271       .  A
O570        C577   1.269       .  A
C571        O578   1.267       .  A
C571        O572   1.281       .  A
C571        C601   1.444       .  S
C573        O575   1.267       .  A
C573        O579   1.271       .  A
C573       C1970   1.420   1_455  S
C577        C598   1.414       .  S
In580       O582   2.205       .  S
In580       O583   2.171       .  S
In580       O591   2.200       .  S
In580       O585   2.235       .  S
In580       O587   2.248       .  S
In580       O588   2.163       .  S
In580       O589   2.194       .  S
In580       O592   2.219       .  S
C581        O587   1.277       .  A
C581        O589   1.266       .  A
C581        C608   1.440       .  S
O582        C590   1.271       .  A
O583        C590   1.270       .  A
C584        O591   1.268       .  A
C584        O585   1.280       .  A
C584        C609   1.437       .  S
C586        O588   1.270       .  A
C586        O592   1.272       .  A
C586        C593   1.419       .  S
C590        C595   1.420       .  S
C593        C594   1.197       .  T
C594       C1949   1.420       .  S
C595        C596   1.196       .  T
C597        C598   1.194       .  T
C599        C600   1.194       .  T
C600       C1923   1.415       .  S
C601        C602   1.212       .  T
C603        C604   1.211       .  T
C605        C606   1.213       .  T
C607        C608   1.210       .  T
C609        C610   1.207       .  T
C611        C612   1.215       .  T
C613       C1302   1.213       .  T
C614       C1301   1.213       .  T
C615       C1304   1.209       .  T
C616       C1303   1.209       .  T
C617        C618   1.190       .  T
C619        C620   1.192       .  T
C621        C622   1.194       .  T
C623        C624   1.196       .  T
C625       C1314   1.212       .  T
C626       C1313   1.212       .  T
C627       C1316   1.211       .  T
C628       C1315   1.211   1_545  T
C629        C630   1.210       .  T
C631        C632   1.207       .  T
C633        C634   1.210       .  T
C635        C636   1.208       .  T
C637        C638   1.207       .  T
C639        C640   1.210       .  T
C641        C642   1.211       .  T
C643        C644   1.214       .  T
C645       C1609   1.418       .  S
C645        C646   1.196       .  T
C647        C648   1.210       .  T
C649        C650   1.194       .  T
C651        C652   1.210       .  T
C653       C1596   1.415       .  S
C653        C654   1.194       .  T
C655        C656   1.193       .  T
C657        C658   1.209       .  T
C659        C660   1.213       .  T
C661        C662   1.209       .  T
C663        C664   1.212       .  T
C665        C666   1.190       .  T
C667        C668   1.193       .  T
C669        C670   1.196       .  T
C671        C672   1.197       .  T
C673        C674   1.209       .  T
C675        C676   1.210       .  T
C677        C678   1.212       .  T
C679        C680   1.210       .  T
C681        C682   1.208       .  T
C682        C825   1.436       .  S
C683        C684   1.212       .  T
C685        C686   1.211       .  T
C687        C688   1.210       .  T
C688        C802   1.442       .  S
C689        C690   1.525       .  S
C689        C695   1.513       .  S
C689        C693   1.519       .  S
C689       C1375   1.476       .  S
C690        C691   1.362       .  D
C691        C692   1.591       .  S
C692        C696   1.587       .  S
C692        C694   1.565       .  S
C692        H698   1.107       .  S
C693        C694   1.370       .  D
C693        H699   1.083       .  S
C694        C730   1.504       .  S
C695        C696   1.380       .  D
C695        H700   1.084       .  S
C696        C703   1.568       .  S
C701        C702   1.527       .  S
C701        C707   1.505       .  S
C701        C705   1.542       .  S
C701       C1374   1.477       .  S
C702        C703   1.375       .  D
C702        H709   1.086       .  S
C703        C704   1.590       .  S
C704        C708   1.605       .  S
C704        C706   1.528       .  S
C704        H710   1.107       .  S
C705        C706   1.378       .  D
C705        H711   1.083       .  S
C706        C718   1.498       .  S
C707        C708   1.357       .  D
C707        H712   1.087       .  S
C708       C1004   1.507       .  S
C713        C714   1.532       .  S
C713        C719   1.511       .  S
C713        C717   1.516       .  S
C713       C1371   1.480       .  S
C714        C715   1.368       .  D
C714        H721   1.086       .  S
C715        C716   1.585       .  S
C715       C1023   1.514       .  S
C716        C720   1.580       .  S
C716        C718   1.564       .  S
C716        H722   1.107       .  S
C717        C718   1.367       .  D
C717        H723   1.083       .  S
C719        C720   1.383       .  D
C719        H724   1.084       .  S
C720        C727   1.564       .  S
C725        C726   1.523       .  S
C725        C731   1.505       .  S
C725        C729   1.547       .  S
C725       C1369   1.472       .  S
C726        C727   1.368       .  D
C726        H733   1.087       .  S
C727        C728   1.594       .  S
C728        C732   1.610       .  S
C728        C730   1.528       .  S
C728        H734   1.107       .  S
C729        C730   1.377       .  D
C729        H735   1.083       .  S
C731        C732   1.361       .  D
C737        C738   1.512       .  S
C737        C743   1.531       .  S
C737        C741   1.514       .  S
C737       C1367   1.477       .  S
C738        C739   1.379       .  D
C738        H745   1.082       .  S
C739        C740   1.588       .  S
C739        C756   1.568       .  S
C740        C744   1.587       .  S
C740        C742   1.560       .  S
C740        H746   1.108       .  S
C741        C742   1.369       .  D
C741        H747   1.082       .  S
C742        C766   1.499       .  S
C743        C744   1.367       .  D
C743        H748   1.086       .  S
C744        C856   1.514       .  S
C749        C750   1.506       .  S
C749        C755   1.527       .  S
C749        C753   1.544       .  S
C749       C1365   1.481       .  S
C750        C751   1.359       .  D
C750        H757   1.087       .  S
C751        C752   1.606       .  S
C751        C875   1.511       .  S
C752       C2132   1.590   1_455  S
C752        C754   1.528       .  S
C752        H758   1.107       .  S
C753        C754   1.378       .  D
C753        H759   1.083       .  S
C754        C778   1.500       .  S
C755       C2132   1.376   1_455  D
C755       H2136   1.086   1_455  S
C756       C2128   1.590       .  S
C756       C2131   1.376       .  D
H760       C2131   1.086       .  S
C761        C762   1.504       .  S
C761        C767   1.527       .  S
C761        C765   1.540       .  S
C761       C1363   1.475   1_565  S
C762        C763   1.361       .  D
C762        H769   1.087       .  S
C763        C764   1.614       .  S
C763        C839   1.511       .  S
C764        C768   1.592       .  S
C764        C766   1.528       .  S
C764        H770   1.107       .  S
C765        C766   1.373       .  D
C765        H771   1.082       .  S
C767        C768   1.373       .  D
C767        H772   1.087   1_565  S
C768        C775   1.568       .  S
C773        C774   1.507       .  S
C773        C779   1.530       .  S
C773        C777   1.518       .  S
C773       C1362   1.476       .  S
C774       C2151   1.379   1_455  D
C774       H2157   1.085   1_455  S
C775       C2152   1.586       .  S
C775       C2150   1.379       .  D
C776       C2151   1.586   1_455  S
C776        C780   1.584       .  S
C776        C778   1.567       .  S
C776        H782   1.107       .  S
C777        C778   1.370       .  D
C777        H783   1.083       .  S
C779        C780   1.365       .  D
C779        H784   1.086       .  S
C780        C868   1.511       .  S
H781       C2150   1.085       .  S
In785       O787   2.224       .  S
In785       O788   2.159       .  S
In785       O796   2.206       .  S
In785       O790   2.241       .  S
In785       O792   2.251       .  S
In785       O793   2.155       .  S
In785       O794   2.195       .  S
In785       O797   2.216       .  S
C786        O792   1.278       .  A
C786        O794   1.266       .  A
C786       C1373   1.442       .  S
O787        C795   1.273       .  A
O788        C795   1.268       .  A
C789        O796   1.269       .  A
C789        O790   1.280       .  A
C789       C1368   1.442       .  S
C791        O793   1.271       .  A
C791        O797   1.274       .  A
C791       C1357   1.418       .  S
C795       C1359   1.419       .  S
In798       O800   2.220   1_545  S
In798       O801   2.156   1_545  S
In798       O809   2.210   1_545  S
In798       O805   2.250       .  S
In798       O806   2.161   1_545  S
In798       O807   2.199   1_545  S
C799        O805   1.277       .  A
C799        O807   1.267   1_545  A
C799       C1364   1.443       .  S
O800        C808   1.273       .  A
O801        C808   1.269       .  A
C802        O809   1.269   1_545  A
C804        O806   1.271   1_545  A
C804       C1355   1.415       .  S
C808       C1360   1.418       .  S
In811       O813   2.213       .  S
In811       O814   2.177       .  S
In811       O822   2.201       .  S
In811       O816   2.269       .  S
In811       O818   2.271       .  S
In811       O819   2.163       .  S
In811       O820   2.203       .  S
In811       O823   2.210       .  S
C812        O818   1.279       .  A
C812        O820   1.261       .  A
C812       C1372   1.444       .  S
O813        C821   1.267       .  A
O814        C821   1.264       .  A
C815        O822   1.261       .  A
C815        O816   1.276       .  A
C815       C1366   1.444       .  S
C817        O819   1.266       .  A
C817        O823   1.267       .  A
C817       C1353   1.409       .  S
C821       C1358   1.420       .  S
In824       O826   2.186       .  S
In824       O827   2.176       .  S
In824       O835   2.191       .  S
In824       O829   2.266       .  S
In824       O832   2.153       .  S
In824       O833   2.186       .  S
C825        O833   1.259       .  A
O826        C834   1.264       .  A
O827        C834   1.265       .  A
C828        O835   1.259       .  A
C828        O829   1.278       .  A
C828       C1361   1.438       .  S
C830        O832   1.262   1_545  A
C830       C1356   1.411       .  S
C834       C1354   1.410       .  S
C837        C838   1.533       .  S
C837        C843   1.511       .  S
C837        C841   1.518       .  S
C837       C1352   1.480       .  S
C838        C839   1.368       .  D
C838        H845   1.086       .  S
C839        C840   1.582       .  S
C840        C844   1.585       .  S
C840        C842   1.562       .  S
C840        H846   1.107       .  S
C841        C842   1.371       .  D
C841        H847   1.083       .  S
C842        C854   1.500       .  S
C843        C844   1.379       .  D
C843        H848   1.083       .  S
C844        C863   1.567       .  S
C849        C850   1.527       .  S
C849        C855   1.504       .  S
C849        C853   1.543       .  S
C849       C1349   1.473       .  S
C850        C851   1.373       .  D
C850        H857   1.086       .  S
C851        C852   1.591       .  S
C851        C880   1.568       .  S
C852        C856   1.613       .  S
C852        C854   1.530       .  S
C852        H858   1.107       .  S
C853        C854   1.375       .  D
C853        H859   1.083       .  S
C855        C856   1.359       .  D
C855        H860   1.087       .  S
C861        C862   1.527       .  S
C861        C867   1.505       .  S
C861        C865   1.545       .  S
C861       C1348   1.481   1_565  S
C862        C863   1.374       .  D
C862        H869   1.087   1_565  S
C863        C864   1.591       .  S
C864        C868   1.608       .  S
C864        C866   1.525       .  S
C864        H870   1.107       .  S
C865        C866   1.379       .  D
C865        H871   1.083       .  S
C866        C878   1.500       .  S
C867        C868   1.360       .  D
C867        H872   1.087       .  S
C873        C874   1.530       .  S
C873        C879   1.511       .  S
C873        C877   1.515       .  S
C873       C1345   1.475       .  S
C874        C875   1.365       .  D
C874        H881   1.086       .  S
C875        C876   1.585       .  S
C876        C880   1.586       .  S
C876        C878   1.567       .  S
C876        H882   1.108       .  S
C877        C878   1.367       .  D
C877        H883   1.083       .  S
C879        C880   1.380       .  D
C879        H884   1.083       .  S
In885       O887   2.216       .  S
In885       O888   2.155       .  S
In885       O896   2.190       .  S
In885       O890   2.252       .  S
In885       O892   2.248       .  S
In885       O893   2.166       .  S
In885       O894   2.203       .  S
In885       O897   2.209       .  S
C886        O892   1.279       .  A
C886        O894   1.266       .  A
C886       C1340   1.441       .  S
O887        C895   1.271       .  A
O888        C895   1.268       .  A
C889        O896   1.264       .  A
C889        O890   1.277       .  A
C889       C1350   1.438       .  S
C891        O893   1.268       .  A
C891        O897   1.270       .  A
C891       C1342   1.416       .  S
C895       C1343   1.412       .  S
In898       O900   2.221       .  S
In898       O901   2.167       .  S
In898       O909   2.199       .  S
In898       O903   2.251       .  S
In898       O905   2.263       .  S
In898       O906   2.181       .  S
In898       O907   2.193       .  S
In898       O910   2.202       .  S
C899        O905   1.276       .  A
C899        O907   1.262       .  A
C899       C1336   1.440       .  S
O900        C908   1.268       .  A
O901        C908   1.267       .  A
C902        O909   1.264       .  A
C902        O903   1.279       .  A
C902       C1346   1.439       .  S
C904        O906   1.267       .  A
C904        O910   1.268       .  A
C904       C1337   1.418       .  S
C908       C2717   1.415       .  S
In911       O914   2.165       .  S
In911       O922   2.204   1_545  S
In911       O919   2.148   1_545  S
In911       O920   2.197       .  S
In911       O923   2.222   1_545  S
C912        O920   1.263       .  A
C912       C1347   1.445       .  S
O913        C921   1.270   1_455  A
C915        O916   1.281       .  A
C915       C1332   1.447       .  S
C917        O919   1.267       .  A
C917        O923   1.272       .  A
C917       C1338   1.412       .  S
C921       C2709   1.418       .  S
In924       O927   2.164       .  S
In924       O935   2.203       .  S
In924       O932   2.162       .  S
In924       O933   2.198       .  S
In924       O936   2.201       .  S
C925        O931   1.277       .  A
C925       C1329   1.442       .  S
O926        C934   1.271       .  A
C928        O935   1.266       .  A
C928       C1351   1.444       .  S
C930        O932   1.269       .  A
C930        O936   1.270       .  A
C930       C1344   1.414       .  S
C934       C1334   1.417       .  S
C937        C938   1.506       .  S
C937        C943   1.526       .  S
C937        C941   1.548       .  S
C937       C1335   1.477       .  S
C938        C939   1.360   1_554  D
C938        H945   1.087       .  S
C939        C940   1.609       .  S
C939       C1219   1.514       .  S
C940        C944   1.592       .  S
C940        C942   1.528   1_456  S
C940        H946   1.106   1_455  S
C941        C942   1.378   1_455  D
C941        H947   1.083       .  S
C942       C2330   1.502       .  S
C943        C944   1.373   1_554  D
C943        H948   1.087       .  S
C944        C975   1.567   1_556  S
C949        C950   1.516       .  S
C949        C955   1.527       .  S
C949        C953   1.520       .  S
C949       C1339   1.477       .  S
C950        C951   1.381       .  D
C950        H957   1.082       .  S
C951        C952   1.584   1_554  S
C951        C968   1.571   1_554  S
C952        C956   1.585       .  S
C952        C954   1.566   1_556  S
C952        H958   1.107       .  S
C953        C954   1.370       .  D
C953        H959   1.083       .  S
C954       C2318   1.502       .  S
C955        C956   1.363   1_554  D
C955        H960   1.086       .  S
C956       C1188   1.508       .  S
C961        C962   1.508       .  S
C961        C967   1.526       .  S
C961        C965   1.542       .  S
C961       C1330   1.477       .  S
C962        C963   1.360   1_554  D
C963        C964   1.613       .  S
C964        C968   1.595       .  S
C964        C966   1.528   1_556  S
C964        H970   1.107       .  S
C965        C966   1.375       .  D
C965        H971   1.083       .  S
C966       C2354   1.499       .  S
C967        C968   1.374   1_554  D
C967        H972   1.086       .  S
C973        C974   1.510       .  S
C973        C979   1.534       .  S
C973        C977   1.518   1_455  S
C973       C1331   1.483       .  S
C974        C975   1.379       .  D
C974        H981   1.084       .  S
C975        C976   1.584   1_554  S
C976        C980   1.583   1_556  S
C976        C978   1.564   1_456  S
C976        H982   1.107   1_455  S
C977        C978   1.371       .  D
C977        H983   1.083       .  S
C978       C2342   1.499       .  S
C979        C980   1.368       .  D
C979        H984   1.086       .  S
C985        C986   1.507       .  S
C985        C991   1.526       .  S
C985        C989   1.544       .  S
C985       C1328   1.477       .  S
C986        C987   1.358       .  D
C986        H993   1.087       .  S
C987        C988   1.606       .  S
C988        C992   1.591       .  S
C988        C990   1.527       .  S
C988        H994   1.107       .  S
C989        C990   1.379       .  D
C989        H995   1.083       .  S
C990       C1014   1.497       .  S
C991        C992   1.373       .  D
C991        H996   1.086       .  S
C992        C999   1.567       .  S
C997        C998   1.515       .  S
C997       C1003   1.524       .  S
C997       C1001   1.515       .  S
C997       C1326   1.472       .  S
C998        C999   1.381       .  D
C998       H1005   1.083       .  S
C999       C1000   1.584       .  S
C1000      C1004   1.589       .  S
C1000      C1002   1.563       .  S
C1000      H1006   1.107       .  S
C1001      C1002   1.370       .  D
C1001      H1007   1.082       .  S
C1002      C1026   1.499       .  S
C1003      C1004   1.361       .  D
C1003      H1008   1.086       .  S
C1009      C1010   1.510       .  S
C1009      C1015   1.528       .  S
C1009      C1013   1.516       .  S
C1009      C1324   1.474       .  S
C1010      C1011   1.383       .  D
C1010      H1017   1.084       .  S
C1011      C1012   1.581       .  S
C1011      C1028   1.566       .  S
C1012      C1016   1.584       .  S
C1012      C1014   1.565       .  S
C1012      H1018   1.107       .  S
C1013      C1014   1.367       .  D
C1013      H1019   1.083       .  S
C1015      C1016   1.364       .  D
C1015      H1020   1.086       .  S
C1021      C1022   1.509       .  S
C1021      C1027   1.524       .  S
C1021      C1025   1.542       .  S
C1021      C1322   1.474       .  S
C1022      C1023   1.365       .  D
C1022      H1029   1.087       .  S
C1023      C1024   1.611       .  S
C1024      C1028   1.594       .  S
C1024      C1026   1.527       .  S
C1024      H1030   1.107       .  S
C1025      C1026   1.373       .  D
C1025      H1031   1.083       .  S
C1027      C1028   1.369       .  D
C1027      H1032   1.088       .  S
C1033      C1034   1.524       .  S
C1033      C1039   1.504       .  S
C1033      C1037   1.541       .  S
C1033      C1319   1.470       .  S
C1034      C1035   1.372       .  D
C1034      H1041   1.087       .  S
C1035      C1036   1.593       .  S
C1035      C1052   1.566       .  S
C1036      C1040   1.609       .  S
C1036      C1038   1.528       .  S
C1036      H1042   1.107       .  S
C1037      C1038   1.374       .  D
C1037      H1043   1.083       .  S
C1038      C1062   1.498       .  S
C1039      C1040   1.360       .  D
C1039      H1044   1.087       .  S
C1040      C1176   1.507       .  S
C1045      C1046   1.527       .  S
C1045      C1051   1.510       .  S
C1045      C1049   1.518       .  S
C1045      C1317   1.478       .  S
C1046      C1047   1.364       .  D
C1046      H1053   1.086       .  S
C1047      C1048   1.589       .  S
C1047      C1159   1.513       .  S
C1048      C2428   1.584       .  S
C1048      C1050   1.564       .  S
C1048      H1054   1.108       .  S
C1049      C1050   1.371       .  D
C1049      H1055   1.083       .  S
C1050      C1074   1.502       .  S
C1051      C2428   1.381       .  D
C1051      H2432   1.083   1_455  S
C1052      C2424   1.584       .  S
C1052      C2427   1.381       .  D
H1056      C2427   1.083       .  S
C1057      C1061   1.515       .  S
C1057      C1316   1.478       .  S
C1058      H1065   1.086   1_545  S
C1059      C1060   1.591       .  S
C1059      C1135   1.515       .  S
C1060      C1064   1.586       .  S
C1060      C1062   1.561       .  S
C1060      H1066   1.107       .  S
C1061      C1062   1.368       .  D
C1061      H1067   1.082       .  S
C1063      H1068   1.082   1_545  S
C1064      C1071   1.568       .  S
C1069      C1073   1.540       .  S
C1069      C1314   1.479       .  S
C1070      C1759   1.375   1_465  D
C1070      H2453   1.085       .  S
C1071      C2448   1.594       .  S
C1071      C1758   1.375       .  D
C1072      C2447   1.594   1_455  S
C1072      C1076   1.608       .  S
C1072      C1074   1.532       .  S
C1072      H1078   1.107       .  S
C1073      C1074   1.375       .  D
C1073      H1079   1.083       .  S
C1075      H1080   1.087       .  S
C1076      C1152   1.515       .  S
H1077      C2446   1.085       .  S
In1081     O1083   2.205       .  S
In1081     O1084   2.155       .  S
In1081     O1092   2.207       .  S
In1081     O1086   2.225       .  S
In1081     O1088   2.240       .  S
In1081     O1089   2.157       .  S
In1081     O1090   2.188       .  S
In1081     O1093   2.219       .  S
C1082      O1088   1.277       .  A
C1082      O1090   1.267       .  A
C1082      C1320   1.437       .  S
O1083      C1091   1.273       .  A
O1084      C1091   1.271       .  A
C1085      O1092   1.270       .  A
C1085      O1086   1.279       .  A
C1085      C1325   1.437       .  S
C1087      O1089   1.270       .  A
C1087      O1093   1.273       .  A
C1087      C1311   1.418       .  S
C1091      C1309   1.415       .  S
In1094     O1105   2.187   1_565  S
In1094     O1099   2.254       .  S
In1094     O1101   2.252       .  S
In1094     O1106   2.211       .  S
C1095      O1101   1.280       .  A
C1095      C1315   1.443       .  S
O1096      C1104   1.272       .  A
O1097      C1104   1.266       .  A
C1098      O1105   1.264   1_565  A
C1098      O1099   1.278       .  A
C1098      C1327   1.439       .  S
C1100      O1106   1.272       .  A
C1100      C1308   1.411       .  S
C1104      C1312   1.418       .  S
In1107     O1112   2.261       .  S
In1107     O1114   2.255       .  S
In1107     O1116   2.197       .  S
In1107     O1119   2.203       .  S
C1108      O1114   1.278       .  A
C1108      O1116   1.262       .  A
C1108      C1323   1.437       .  S
O1109      C1117   1.266       .  A
O1110      C1117   1.267       .  A
C1111      O1112   1.275       .  A
C1111      C1313   1.443       .  S
C1113      O1119   1.266       .  A
C1113      C1307   1.415       .  S
C1117      C1306   1.409       .  S
In1120     O1122   2.227       .  S
In1120     O1123   2.157       .  S
In1120     O1131   2.201       .  S
In1120     O1125   2.257       .  S
In1120     O1127   2.263       .  S
In1120     O1128   2.161       .  S
In1120     O1129   2.191       .  S
In1120     O1132   2.192       .  S
C1121      O1127   1.277       .  A
C1121      O1129   1.262       .  A
C1121      C1321   1.441       .  S
O1122      C1130   1.269       .  A
O1123      C1130   1.265       .  A
C1124      O1131   1.263       .  A
C1124      O1125   1.279       .  A
C1124      C1318   1.441       .  S
C1126      O1128   1.267       .  A
C1126      O1132   1.268       .  A
C1126      C1305   1.408       .  S
C1130      C1310   1.414       .  S
C1133      C1134   1.507       .  S
C1133      C1139   1.524       .  S
C1133      C1137   1.550       .  S
C1133      C1304   1.475       .  S
C1134      C1135   1.362       .  D
C1135      C1136   1.611       .  S
C1136      C1140   1.594       .  S
C1136      C1138   1.526       .  S
C1136      H1142   1.106       .  S
C1137      C1138   1.378       .  D
C1137      H1143   1.083       .  S
C1138      C1174   1.503       .  S
C1139      C1140   1.368       .  D
C1140      C1147   1.565       .  S
C1145      C1149   1.512       .  S
C1145      C1302   1.481       .  S
C1146      H1153   1.085   1_545  S
C1147      C1148   1.581       .  S
C1148      C1152   1.585       .  S
C1148      C1150   1.565       .  S
C1148      H1154   1.107       .  S
C1149      C1150   1.365       .  D
C1149      H1155   1.083       .  S
C1150      C1162   1.497       .  S
C1151      H1156   1.086       .  S
C1157      C1158   1.510       .  S
C1157      C1163   1.528       .  S
C1157      C1161   1.541       .  S
C1157      C1300   1.484       .  S
C1158      C1159   1.362       .  D
C1158      H1165   1.087       .  S
C1159      C1160   1.606       .  S
C1160      C1164   1.591       .  S
C1160      C1162   1.525       .  S
C1160      H1166   1.107       .  S
C1161      C1162   1.378       .  D
C1161      H1167   1.083       .  S
C1163      C1164   1.375       .  D
C1163      H1168   1.086       .  S
C1164      C1171   1.568       .  S
C1169      C1170   1.513       .  S
C1169      C1175   1.525       .  S
C1169      C1173   1.519       .  S
C1169      C1298   1.473       .  S
C1170      C1171   1.379       .  D
C1170      H1177   1.084       .  S
C1171      C1172   1.585       .  S
C1172      C1176   1.587       .  S
C1172      C1174   1.566       .  S
C1172      H1178   1.107       .  S
C1173      C1174   1.369       .  D
C1173      H1179   1.083       .  S
C1175      C1176   1.362       .  D
C1175      H1180   1.086       .  S
C1181      C1182   1.526       .  S
C1181      C1187   1.504       .  S
C1181      C1185   1.540       .  S
C1181      C1295   1.475       .  S
C1182      C1183   1.375       .  D
C1182      H1189   1.086       .  S
C1183      C1184   1.592       .  S
C1183      C1200   1.569       .  S
C1184      C1188   1.608       .  S
C1184      C1186   1.529       .  S
C1184      H1190   1.107       .  S
C1185      C1186   1.375       .  D
C1185      H1191   1.083       .  S
C1186      C2598   1.498       .  S
C1187      C1188   1.359       .  D
C1187      H1192   1.087       .  S
C1193      C1194   1.531       .  S
C1193      C1199   1.509       .  S
C1193      C1197   1.519       .  S
C1193      C1293   1.482       .  S
C1194      C1195   1.367       .  D
C1194      H1201   1.086   1_565  S
C1195      C1196   1.592       .  S
C1196      C1200   1.588       .  S
C1196      C1198   1.563       .  S
C1196      H1202   1.108       .  S
C1197      C1198   1.372       .  D
C1197      H1203   1.083       .  S
C1198      C2586   1.504       .  S
C1199      C1200   1.379       .  D
C1199      H1204   1.084       .  S
C1205      C1206   1.524       .  S
C1205      C1211   1.507       .  S
C1205      C1209   1.541       .  S
C1205      C1291   1.477       .  S
C1206      C1207   1.373       .  D
C1206      H1213   1.086       .  S
C1207      C1208   1.595       .  S
C1207      C1224   1.568       .  S
C1208      C1212   1.610       .  S
C1208      C1210   1.532   1_455  S
C1208      H1214   1.108   1_455  S
C1209      C1210   1.375   1_455  D
C1209      H1215   1.083       .  S
C1210      C2574   1.504       .  S
C1211      C1212   1.362       .  D
C1211      H1216   1.087   1_565  S
C1217      C1218   1.530       .  S
C1217      C1223   1.511       .  S
C1217      C1221   1.516   1_455  S
C1217      C1290   1.479       .  S
C1218      C1219   1.366       .  D
C1218      H1225   1.086       .  S
C1219      C1220   1.589       .  S
C1220      C1224   1.585       .  S
C1220      C1222   1.561   1_455  S
C1220      H1226   1.107       .  S
C1221      C1222   1.369       .  D
C1221      H1227   1.083       .  S
C1222      C2562   1.498       .  S
C1223      C1224   1.381       .  D
C1223      H1228   1.084       .  S
In1229     O1234   2.265   1_545  S
In1229     O1236   2.265   1_545  S
In1229     O1238   2.198       .  S
In1229     O1241   2.215   1_545  S
C1230      O1236   1.276       .  A
C1230      O1238   1.262   1_565  A
C1230      C1292   1.443       .  S
O1231      C1239   1.267       .  A
O1232      C1239   1.266       .  A
C1233      O1234   1.279   1_545  A
C1233      C1301   1.446       .  S
C1235      O1241   1.269       .  A
C1235      C2664   1.415       .  S
C1239      C1285   1.415       .  S
In1242     O1253   2.200       .  S
In1242     O1247   2.266       .  S
In1242     O1249   2.271       .  S
In1242     O1254   2.207       .  S
C1243      O1249   1.278       .  A
C1243      C1303   1.438       .  S
O1244      C1252   1.270       .  A
O1245      C1252   1.264       .  A
C1246      O1253   1.262       .  A
C1246      O1247   1.280       .  A
C1246      C1294   1.445       .  S
C1248      O1254   1.268       .  A
C1248      C1287   1.415       .  S
C1252      C1284   1.416       .  S
In1255     O1257   2.214       .  S
In1255     O1258   2.155       .  S
In1255     O1266   2.206       .  S
In1255     O1260   2.254       .  S
In1255     O1262   2.269       .  S
In1255     O1263   2.164       .  S
In1255     O1264   2.206       .  S
In1255     O1267   2.222       .  S
C1256      O1262   1.278       .  A
C1256      O1264   1.264       .  A
C1256      C1299   1.449       .  S
O1257      C1265   1.271       .  A
O1258      C1265   1.269       .  A
C1259      O1266   1.267       .  A
C1259      O1260   1.281       .  A
C1259      C1289   1.444       .  S
C1261      O1263   1.267       .  A
C1261      O1267   1.271       .  A
C1261      C2658   1.420   1_455  S
C1265      C1286   1.414       .  S
In1268     O1270   2.206       .  S
In1268     O1271   2.171       .  S
In1268     O1279   2.200       .  S
In1268     O1273   2.235       .  S
In1268     O1275   2.248       .  S
In1268     O1276   2.163       .  S
In1268     O1277   2.195       .  S
In1268     O1280   2.219       .  S
C1269      O1275   1.277       .  A
C1269      O1277   1.266       .  A
C1269      C1296   1.440       .  S
O1270      C1278   1.271       .  A
O1271      C1278   1.270       .  A
C1272      O1279   1.268       .  A
C1272      O1273   1.280       .  A
C1272      C1297   1.437       .  S
C1274      O1276   1.270       .  A
C1274      O1280   1.272       .  A
C1274      C1281   1.419       .  S
C1278      C1283   1.420       .  S
C1281      C1282   1.197       .  T
C1282      C2637   1.420       .  S
C1283      C1284   1.196       .  T
C1285      C1286   1.194       .  T
C1287      C1288   1.194       .  T
C1288      C2611   1.415       .  S
C1289      C1290   1.212       .  T
C1291      C1292   1.211       .  T
C1293      C1294   1.213       .  T
C1295      C1296   1.210       .  T
C1297      C1298   1.208       .  T
C1299      C1300   1.215       .  T
C1305      C1306   1.190       .  T
C1307      C1308   1.192       .  T
C1309      C1310   1.194       .  T
C1311      C1312   1.196       .  T
C1317      C1318   1.210       .  T
C1319      C1320   1.207       .  T
C1321      C1322   1.210       .  T
C1323      C1324   1.208       .  T
C1325      C1326   1.207       .  T
C1327      C1328   1.210       .  T
C1329      C1330   1.211       .  T
C1331      C1332   1.214       .  T
C1333      C2297   1.418       .  S
C1333      C1334   1.196       .  T
C1335      C1336   1.210       .  T
C1337      C1338   1.195       .  T
C1339      C1340   1.210       .  T
C1341      C2284   1.415       .  S
C1341      C1342   1.194       .  T
C1343      C1344   1.193       .  T
C1345      C1346   1.209       .  T
C1347      C1348   1.213       .  T
C1349      C1350   1.209       .  T
C1351      C1352   1.212       .  T
C1353      C1354   1.190       .  T
C1355      C1356   1.193       .  T
C1357      C1358   1.196       .  T
C1359      C1360   1.197       .  T
C1361      C1362   1.209       .  T
C1363      C1364   1.211       .  T
C1365      C1366   1.212       .  T
C1367      C1368   1.210       .  T
C1369      C1370   1.208       .  T
C1371      C1372   1.212       .  T
C1373      C1374   1.211       .  T
C1375      C1376   1.210       .  T
C1377      C1378   1.525   1_545  S
C1377      C1383   1.513       .  S
C1377      C1381   1.519       .  S
C1377      C2063   1.477       .  S
C1378      C1379   1.362       .  D
C1378      H2073   1.086       .  S
C1379      C1380   1.591   1_565  S
C1379      C2363   1.511       .  S
C1380      C1384   1.586       .  S
C1380      C1382   1.565       .  S
C1380      H1386   1.107       .  S
C1381      C1382   1.370       .  D
C1381      H1387   1.083       .  S
C1382      C1418   1.504       .  S
C1383      C1384   1.380       .  D
C1383      H1388   1.084       .  S
C1384      C1391   1.568       .  S
H1385      C2066   1.086       .  S
C1389      C1390   1.527       .  S
C1389      C1395   1.505       .  S
C1389      C1393   1.542       .  S
C1389      C2062   1.477       .  S
C1390      C1391   1.375       .  D
C1390      H1397   1.086       .  S
C1391      C1392   1.591       .  S
C1392      C1396   1.606       .  S
C1392      C1394   1.528       .  S
C1392      H1398   1.107       .  S
C1393      C1394   1.378       .  D
C1393      H1399   1.083       .  S
C1394      C1406   1.498       .  S
C1395      C1396   1.357       .  D
C1395      H1400   1.087       .  S
C1396      C1692   1.507       .  S
C1401      C1402   1.532       .  S
C1401      C1407   1.511       .  S
C1401      C1405   1.516       .  S
C1401      C2059   1.480       .  S
C1402      C1403   1.367       .  D
C1402      H1409   1.086       .  S
C1403      C1404   1.585       .  S
C1403      C1711   1.513       .  S
C1404      C1408   1.580       .  S
C1404      C1406   1.564       .  S
C1404      H1410   1.107       .  S
C1405      C1406   1.368       .  D
C1405      H1411   1.083       .  S
C1407      C1408   1.383       .  D
C1407      H1412   1.084       .  S
C1408      C1415   1.564       .  S
C1413      C1414   1.523       .  S
C1413      C1419   1.505   1_545  S
C1413      C1417   1.547       .  S
C1413      C2057   1.472   1_545  S
C1414      C1415   1.368       .  D
C1414      H1421   1.087       .  S
C1415      C1416   1.594       .  S
C1416      C1420   1.610   1_545  S
C1416      C1418   1.528       .  S
C1416      H1422   1.107       .  S
C1417      C1418   1.377       .  D
C1417      H1423   1.083       .  S
C1419      C1420   1.361       .  D
C1419      H2112   1.087       .  S
C1420      C2392   1.508       .  S
H1424      C2107   1.087       .  S
C1425      C1426   1.512       .  S
C1425      C1431   1.531       .  S
C1425      C1429   1.514       .  S
C1425      C2055   1.477       .  S
C1426      C1427   1.379       .  D
C1426      H1433   1.082       .  S
C1427      C1428   1.588       .  S
C1427      C1444   1.568       .  S
C1428      C1432   1.587       .  S
C1428      C1430   1.560       .  S
C1428      H1434   1.108       .  S
C1429      C1430   1.369       .  D
C1429      H1435   1.082       .  S
C1430      C1454   1.499       .  S
C1431      C1432   1.367       .  D
C1431      H1436   1.086       .  S
C1432      C1544   1.514       .  S
C1437      C1438   1.506       .  S
C1437      C1443   1.527       .  S
C1437      C1441   1.544       .  S
C1437      C2053   1.481       .  S
C1438      C1439   1.359       .  D
C1438      H1445   1.087       .  S
C1439      C1440   1.606       .  S
C1439      C1563   1.511       .  S
C1440      C1442   1.528       .  S
C1440      H1446   1.107       .  S
C1441      C1442   1.378       .  D
C1441      H1447   1.083       .  S
C1442      C1466   1.500       .  S
C1449      C1450   1.504       .  S
C1449      C1455   1.527       .  S
C1449      C1453   1.540       .  S
C1449      C2051   1.475       .  S
C1450      C1451   1.361       .  D
C1450      H1457   1.087       .  S
C1451      C1452   1.614       .  S
C1451      C1527   1.511       .  S
C1452      C1456   1.592       .  S
C1452      C1454   1.528       .  S
C1452      H1458   1.107       .  S
C1453      C1454   1.373       .  D
C1453      H1459   1.082       .  S
C1455      C1456   1.373       .  D
C1455      H1460   1.087       .  S
C1456      C1463   1.567       .  S
C1461      C1462   1.507       .  S
C1461      C1467   1.530       .  S
C1461      C1465   1.518       .  S
C1461      C2050   1.476       .  S
C1464      C1468   1.584       .  S
C1464      C1466   1.567       .  S
C1464      H1470   1.107       .  S
C1465      C1466   1.370       .  D
C1465      H1471   1.083       .  S
C1467      C1468   1.365       .  D
C1467      H1472   1.086       .  S
C1468      C1556   1.511       .  S
In1473     O1475   2.224       .  S
In1473     O1476   2.159       .  S
In1473     O1484   2.206       .  S
In1473     O1478   2.241       .  S
In1473     O1480   2.251       .  S
In1473     O1481   2.155       .  S
In1473     O1482   2.195       .  S
In1473     O1485   2.216       .  S
C1474      O1480   1.278       .  A
C1474      O1482   1.266       .  A
C1474      C2061   1.442       .  S
O1475      C1483   1.273       .  A
O1476      C1483   1.268       .  A
C1477      O1484   1.269       .  A
C1477      O1478   1.280       .  A
C1477      C2056   1.442       .  S
C1479      O1481   1.271       .  A
C1479      O1485   1.274       .  A
C1479      C2045   1.417       .  S
C1483      C2047   1.419       .  S
In1486     O1488   2.220       .  S
In1486     O1489   2.156       .  S
In1486     O1497   2.209       .  S
In1486     O2179   2.240       .  S
In1486     O1493   2.249       .  S
In1486     O1494   2.161       .  S
In1486     O1495   2.199       .  S
In1486     O2186   2.198       .  S
C1487      O1493   1.277       .  A
C1487      O1495   1.267       .  A
C1487      C2052   1.442       .  S
O1488      C1496   1.273       .  A
O1489      C1496   1.269       .  A
C1490      O1497   1.269       .  A
C1490      O2179   1.279       .  A
C1490      C2752   1.442       .  S
O1491     In2174   2.241       .  S
O1491      C2178   1.279       .  A
C1492      O1494   1.271       .  A
C1492      O2186   1.272       .  A
C1492      C2043   1.414       .  S
C1496      C2048   1.418       .  S
O1498     In2174   2.198       .  S
O1498      C2180   1.272       .  A
In1499     O1501   2.213       .  S
In1499     O1502   2.177       .  S
In1499     O1510   2.201       .  S
In1499     O1504   2.269       .  S
In1499     O1506   2.271       .  S
In1499     O1507   2.163       .  S
In1499     O1508   2.203       .  S
In1499     O1511   2.210       .  S
C1500      O1506   1.279       .  A
C1500      O1508   1.261       .  A
C1500      C2060   1.444       .  S
O1501      C1509   1.267       .  A
O1502      C1509   1.264       .  A
C1503      O1510   1.261       .  A
C1503      O1504   1.276       .  A
C1503      C2054   1.444       .  S
C1505      O1507   1.266       .  A
C1505      O1511   1.267       .  A
C1505      C2041   1.409       .  S
C1509      C2046   1.420       .  S
In1512     O1514   2.186       .  S
In1512     O1515   2.176       .  S
In1512     O1523   2.191       .  S
In1512     O1517   2.266       .  S
In1512     O2207   2.267       .  S
In1512     O1520   2.153       .  S
In1512     O1521   2.186       .  S
In1512     O2212   2.232       .  S
C1513      O2207   1.276       .  A
C1513      O1521   1.259       .  A
C1513      C2746   1.436       .  S
O1514      C1522   1.265       .  A
O1515      C1522   1.265       .  A
C1516      O1523   1.259       .  A
C1516      O1517   1.279       .  A
C1516      C2049   1.438       .  S
C1518      O1520   1.262       .  A
C1518      O2212   1.269       .  A
C1518      C2044   1.411       .  S
O1519     In2200   2.267   1_545  S
O1519      C2201   1.276   1_545  A
C1522      C2042   1.410       .  S
O1524     In2200   2.232   1_545  S
O1524      C2206   1.269       .  A
C1525      C1526   1.533       .  S
C1525      C1531   1.511       .  S
C1525      C1529   1.518       .  S
C1525      C2040   1.480       .  S
C1526      C1527   1.367       .  D
C1526      H1533   1.086       .  S
C1527      C1528   1.582       .  S
C1528      C1532   1.585       .  S
C1528      C1530   1.562       .  S
C1528      H1534   1.107       .  S
C1529      C1530   1.371       .  D
C1529      H1535   1.083       .  S
C1530      C1542   1.500       .  S
C1531      C1532   1.379       .  D
C1531      H1536   1.083       .  S
C1532      C1551   1.567       .  S
C1537      C1538   1.527       .  S
C1537      C1543   1.504       .  S
C1537      C1541   1.543       .  S
C1537      C2037   1.474       .  S
C1538      C1539   1.373       .  D
C1538      H1545   1.086       .  S
C1539      C1540   1.591       .  S
C1539      C1568   1.568       .  S
C1540      C1544   1.613       .  S
C1540      C1542   1.530       .  S
C1540      H1546   1.107       .  S
C1541      C1542   1.375       .  D
C1541      H1547   1.083       .  S
C1543      C1544   1.359       .  D
C1543      H1548   1.087       .  S
C1549      C1550   1.527       .  S
C1549      C1555   1.505       .  S
C1549      C1553   1.545       .  S
C1549      C2036   1.481       .  S
C1550      C1551   1.374       .  D
C1550      H1557   1.087       .  S
C1551      C1552   1.591       .  S
C1552      C1556   1.608       .  S
C1552      C1554   1.525       .  S
C1552      H1558   1.107       .  S
C1553      C1554   1.379       .  D
C1553      H1559   1.083       .  S
C1554      C1566   1.500       .  S
C1555      C1556   1.360       .  D
C1555      H1560   1.087       .  S
C1561      C1562   1.530       .  S
C1561      C1567   1.511       .  S
C1561      C1565   1.515       .  S
C1561      C2033   1.475       .  S
C1562      C1563   1.365       .  D
C1562      H1569   1.086       .  S
C1563      C1564   1.585       .  S
C1564      C1568   1.586       .  S
C1564      C1566   1.567       .  S
C1564      H1570   1.108       .  S
C1565      C1566   1.367       .  D
C1565      H1571   1.083       .  S
C1567      C1568   1.380       .  D
C1567      H1572   1.083       .  S
In1573     O1575   2.217       .  S
In1573     O1576   2.155       .  S
In1573     O1584   2.189       .  S
In1573     O1578   2.252       .  S
In1573     O1580   2.248       .  S
In1573     O1581   2.166       .  S
In1573     O1582   2.203       .  S
In1573     O1585   2.209       .  S
C1574      O1580   1.279       .  A
C1574      O1582   1.266       .  A
C1574      C2028   1.441       .  S
O1575      C1583   1.271       .  A
O1576      C1583   1.268       .  A
C1577      O1584   1.264       .  A
C1577      O1578   1.277       .  A
C1577      C2038   1.438       .  S
C1579      O1581   1.268       .  A
C1579      O1585   1.270       .  A
C1579      C2030   1.416       .  S
C1583      C2031   1.412       .  S
In1586     O1588   2.221       .  S
In1586     O1589   2.167       .  S
In1586     O1597   2.199       .  S
In1586     O1591   2.251       .  S
In1586     O1593   2.262       .  S
In1586     O1594   2.181       .  S
In1586     O1595   2.192       .  S
In1586     O1598   2.201       .  S
C1587      O1593   1.276       .  A
C1587      O1595   1.262       .  A
C1587      C2024   1.440       .  S
O1588      C1596   1.268       .  A
O1589      C1596   1.267       .  A
C1590      O1597   1.264       .  A
C1590      O1591   1.279       .  A
C1590      C2034   1.438       .  S
C1592      O1594   1.267       .  A
C1592      O1598   1.268       .  A
C1592      C2025   1.418       .  S
In1599     O2289   2.213       .  S
In1599     O1602   2.165       .  S
In1599     O1610   2.204       .  S
In1599     O2292   2.268       .  S
In1599     O2294   2.265       .  S
In1599     O1607   2.148       .  S
In1599     O1608   2.197       .  S
In1599     O1611   2.222       .  S
C1600      O2294   1.278       .  A
C1600      O1608   1.263       .  A
C1600      C2035   1.445       .  S
O1601     In2287   2.213       .  S
O1601      C1609   1.270       .  A
O1602      C2297   1.267       .  A
C1603      O2298   1.264   1_545  A
C1603      O1604   1.282       .  A
C1603      C2020   1.447       .  S
O1604     In2287   2.268       .  S
C1605      O1607   1.267       .  A
C1605      O1611   1.272       .  A
C1605      C2026   1.412       .  S
O1606     In2287   2.265       .  S
O1606      C2288   1.278       .  A
C1609      O2290   1.267       .  A
O1610      C2291   1.263       .  A
In1612     O2302   2.217       .  S
In1612     O1615   2.164       .  S
In1612     O1623   2.203       .  S
In1612     O2305   2.254       .  S
In1612     O2307   2.257       .  S
In1612     O1620   2.162       .  S
In1612     O1621   2.198       .  S
In1612     O1624   2.200       .  S
C1613      O1619   1.277   1_565  A
C1613      O2309   1.264       .  A
C1613      C2017   1.442   1_565  S
O1614     In2300   2.217   1_545  S
O1614      C1622   1.271       .  A
O1615      C2310   1.269       .  A
C1616      O1623   1.266       .  A
C1616      O2305   1.281       .  A
C1616      C2039   1.444       .  S
O1617     In2300   2.253   1_545  S
O1617      C2304   1.281   1_545  A
C1618      O1620   1.269       .  A
C1618      O1624   1.270       .  A
C1618      C2032   1.414       .  S
O1619     In2300   2.257   1_545  S
O1621      C2301   1.265       .  A
C1622      O2303   1.269   1_545  A
C1622      C2022   1.417       .  S
C1625      C1626   1.506       .  S
C1625      C1631   1.526       .  S
C1625      C1629   1.548       .  S
C1625      C2023   1.477       .  S
C1626      C1627   1.360   1_554  D
C1626      H1633   1.087       .  S
C1627      C1628   1.609       .  S
C1627      C1907   1.514       .  S
C1628      C1632   1.592       .  S
C1628      C1630   1.528   1_556  S
C1628      H1634   1.106       .  S
C1629      C1630   1.378       .  D
C1629      H1635   1.083       .  S
C1631      C1632   1.373   1_554  D
C1631      H1636   1.087       .  S
C1632      C1663   1.567   1_556  S
C1637      C1638   1.516       .  S
C1637      C1643   1.527       .  S
C1637      C1641   1.520       .  S
C1637      C2027   1.477       .  S
C1638      C1639   1.381       .  D
C1638      H1645   1.082       .  S
C1639      C1640   1.584   1_554  S
C1639      C1656   1.571   1_554  S
C1640      C1644   1.585       .  S
C1640      C1642   1.566   1_556  S
C1640      H1646   1.107       .  S
C1641      C1642   1.370       .  D
C1641      H1647   1.083       .  S
C1643      C1644   1.363   1_554  D
C1643      H1648   1.086       .  S
C1644      C1876   1.508       .  S
C1649      C1650   1.508   1_545  S
C1649      C1655   1.526       .  S
C1649      C1653   1.542       .  S
C1649      C2018   1.477       .  S
C1650      C1651   1.360   1_564  D
C1650      H2345   1.087   1_554  S
C1651      C1652   1.613       .  S
C1651      C2571   1.521   1_545  S
C1652      C1656   1.595       .  S
C1652      C1654   1.529   1_556  S
C1652      H1658   1.107       .  S
C1653      C1654   1.375       .  D
C1653      H1659   1.083       .  S
C1655      C1656   1.374   1_554  D
C1655      H1660   1.086       .  S
H1657      C2338   1.087   1_556  S
C1661      C1662   1.510       .  S
C1661      C1667   1.534   1_545  S
C1661      C1665   1.518       .  S
C1661      C2019   1.483       .  S
C1662      C1663   1.379       .  D
C1662      H1669   1.084       .  S
C1663      C1664   1.584   1_554  S
C1664      C1668   1.583   1_556  S
C1664      C1666   1.564   1_556  S
C1664      H1670   1.107       .  S
C1665      C1666   1.371       .  D
C1665      H1671   1.083       .  S
C1667      C1668   1.368   1_565  D
C1667      H1672   1.086       .  S
C1668      C2588   1.513   1_544  S
C1673      C1674   1.507       .  S
C1673      C1679   1.526       .  S
C1673      C1677   1.544       .  S
C1673      C2016   1.477       .  S
C1674      C1675   1.358       .  D
C1674      H1681   1.087       .  S
C1675      C1676   1.606       .  S
C1675      C2067   1.511       .  S
C1676      C1680   1.591       .  S
C1676      C1678   1.527       .  S
C1676      H1682   1.107       .  S
C1677      C1678   1.379       .  D
C1677      H1683   1.083       .  S
C1678      C1702   1.497       .  S
C1679      C1680   1.373       .  D
C1679      H1684   1.086       .  S
C1680      C1687   1.567       .  S
C1685      C1686   1.515       .  S
C1685      C1691   1.524       .  S
C1685      C1689   1.515       .  S
C1685      C2014   1.472       .  S
C1686      C1687   1.381       .  D
C1686      H1693   1.083       .  S
C1687      C1688   1.584       .  S
C1688      C1692   1.589       .  S
C1688      C1690   1.563       .  S
C1688      H1694   1.107       .  S
C1689      C1690   1.370       .  D
C1689      H1695   1.082       .  S
C1690      C1714   1.499       .  S
C1691      C1692   1.361       .  D
C1691      H1696   1.086       .  S
C1697      C1698   1.510       .  S
C1697      C1703   1.529       .  S
C1697      C1701   1.516       .  S
C1697      C2012   1.474       .  S
C1698      C1699   1.383       .  D
C1698      H1705   1.084       .  S
C1699      C1700   1.581       .  S
C1699      C1716   1.566       .  S
C1700      C1704   1.584       .  S
C1700      C1702   1.565       .  S
C1700      H1706   1.107       .  S
C1701      C1702   1.367       .  D
C1701      H1707   1.083       .  S
C1703      C1704   1.364       .  D
C1703      H1708   1.086       .  S
C1704      C2108   1.509       .  S
C1709      C1710   1.509       .  S
C1709      C1715   1.524       .  S
C1709      C1713   1.542       .  S
C1709      C2010   1.474       .  S
C1710      C1711   1.365       .  D
C1710      H1717   1.087       .  S
C1711      C1712   1.611       .  S
C1712      C1716   1.594       .  S
C1712      C1714   1.527       .  S
C1712      H1718   1.107       .  S
C1713      C1714   1.373       .  D
C1713      H1719   1.083       .  S
C1715      C1716   1.369       .  D
C1715      H1720   1.088       .  S
C1721      C1722   1.524       .  S
C1721      C1727   1.504       .  S
C1721      C1725   1.541       .  S
C1721      C2007   1.470       .  S
C1722      C1723   1.372       .  D
C1722      H1729   1.087       .  S
C1723      C1724   1.593       .  S
C1723      C1740   1.566   1_655  S
C1724      C1728   1.609       .  S
C1724      C1726   1.528       .  S
C1724      H1730   1.107       .  S
C1725      C1726   1.374       .  D
C1725      H1731   1.083       .  S
C1726      C1750   1.499       .  S
C1727      C1728   1.360       .  D
C1727      H1732   1.087       .  S
C1728      C1864   1.507       .  S
C1733      C1734   1.527       .  S
C1733      C1739   1.510       .  S
C1733      C1737   1.518       .  S
C1733      C2005   1.478       .  S
C1734      C1735   1.364       .  D
C1734      H1741   1.086       .  S
C1735      C1736   1.589       .  S
C1735      C1847   1.513       .  S
C1736      C1738   1.564       .  S
C1736      H1742   1.108       .  S
C1737      C1738   1.371       .  D
C1737      H1743   1.083       .  S
C1738      C1762   1.502       .  S
C1745      C2434   1.529       .  S
C1745      C2439   1.512       .  S
C1745      C1749   1.515       .  S
C1745      C2004   1.477       .  S
C1746      C2433   1.529       .  S
C1746      C2435   1.366       .  D
C1746      H1753   1.086       .  S
C1747      C1748   1.591       .  S
C1747      C2434   1.366       .  D
C1747      C1823   1.515       .  S
C1748      C1752   1.586       .  S
C1748      C1750   1.561       .  S
C1748      H1754   1.107       .  S
C1749      C1750   1.368       .  D
C1749      H1755   1.082       .  S
C1751      C2433   1.512       .  S
C1751      C2440   1.380       .  D
C1751      H1756   1.082       .  S
C1752      C2439   1.380       .  D
C1752      C1759   1.568       .  S
C1757      C2446   1.524       .  S
C1757      C2451   1.508       .  S
C1757      C1761   1.540   1_565  S
C1757      C2002   1.479       .  S
C1758      C2445   1.524       .  S
C1760      C1764   1.607       .  S
C1760      C1762   1.532       .  S
C1760      H1766   1.107       .  S
C1761      C1762   1.375       .  D
C1761      H1767   1.083       .  S
C1763      C2445   1.508       .  S
C1763      C2452   1.362       .  D
C1763      H1768   1.087       .  S
C1764      C2451   1.362   1_545  D
C1764      C1840   1.514       .  S
In1769     O1771   2.204       .  S
In1769     O1772   2.155       .  S
In1769     O1780   2.207       .  S
In1769     O1774   2.225       .  S
In1769     O1776   2.240       .  S
In1769     O1777   2.157       .  S
In1769     O1778   2.188       .  S
In1769     O1781   2.219       .  S
C1770      O1776   1.277       .  A
C1770      O1778   1.267       .  A
C1770      C2008   1.437       .  S
O1771      C1779   1.273       .  A
O1772      C1779   1.271       .  A
C1773      O1780   1.270       .  A
C1773      O1774   1.279       .  A
C1773      C2013   1.437       .  S
C1775      O1777   1.270       .  A
C1775      O1781   1.273       .  A
C1775      C1999   1.418       .  S
C1779      C1997   1.415       .  S
In1782     O2472   2.221       .  S
In1782     O2473   2.158       .  S
In1782     O1793   2.187       .  S
In1782     O1787   2.254       .  S
In1782     O1789   2.252       .  S
In1782     O2478   2.147       .  S
In1782     O2479   2.206       .  S
In1782     O1794   2.211       .  S
C1783      O1789   1.280       .  A
C1783      O2479   1.266       .  A
C1783      C2003   1.443       .  S
O1784     In2470   2.221   1_545  S
O1784      C1792   1.272       .  A
O1785     In2470   2.158   1_545  S
O1785      C1792   1.266       .  A
C1786      O1793   1.264       .  A
C1786      O1787   1.278       .  A
C1786      C2015   1.440       .  S
C1788      O2478   1.270       .  A
C1788      O1794   1.272       .  A
C1788      C1996   1.411       .  S
O1790     In2470   2.146       .  S
O1790      C2476   1.270       .  A
O1791     In2470   2.206   1_545  S
O1791      C2471   1.266   1_545  A
C1792      C2000   1.418       .  S
In1795     O2485   2.210       .  S
In1795     O2486   2.166       .  S
In1795     O2494   2.205       .  S
In1795     O1800   2.261       .  S
In1795     O1802   2.256       .  S
In1795     O2491   2.179       .  S
In1795     O1804   2.198       .  S
In1795     O1807   2.203       .  S
C1796      O1802   1.278       .  A
C1796      O1804   1.262       .  A
C1796      C2011   1.437       .  S
O1797     In2483   2.210       .  S
O1797      C1805   1.266   1_565  A
O1798     In2483   2.166   1_545  S
O1798      C1805   1.267       .  A
C1799      O2494   1.262       .  A
C1799      O1800   1.275       .  A
C1799      C2001   1.443       .  S
C1801      O2491   1.266       .  A
C1801      O1807   1.266       .  A
C1801      C1995   1.415       .  S
O1803     In2483   2.179       .  S
O1803      C2489   1.266       .  A
C1805      C1994   1.409       .  S
O1806     In2483   2.205       .  S
O1806      C2487   1.262       .  A
In1808     O1810   2.227       .  S
In1808     O1811   2.157       .  S
In1808     O1819   2.201       .  S
In1808     O1813   2.258       .  S
In1808     O1815   2.263       .  S
In1808     O1816   2.160       .  S
In1808     O1817   2.192       .  S
In1808     O1820   2.192       .  S
C1809      O1815   1.277       .  A
C1809      O1817   1.262       .  A
C1809      C2009   1.441       .  S
O1810      C1818   1.269       .  A
O1811      C1818   1.265       .  A
C1812      O1819   1.263       .  A
C1812      O1813   1.279       .  A
C1812      C2006   1.441       .  S
C1814      O1816   1.267       .  A
C1814      O1820   1.268       .  A
C1814      C1993   1.408       .  S
C1818      C1998   1.414       .  S
C1821      C1822   1.507       .  S
C1821      C1827   1.525       .  S
C1821      C1825   1.550   1_565  S
C1821      C1992   1.475       .  S
C1822      C1823   1.362   1_565  D
C1822      H2517   1.087       .  S
C1823      C1824   1.611       .  S
C1824      C1828   1.594       .  S
C1824      C1826   1.526       .  S
C1824      H1830   1.106       .  S
C1825      C1826   1.378       .  D
C1825      H1831   1.083       .  S
C1826      C1862   1.503       .  S
C1827      C1828   1.368   1_565  D
C1827      H2520   1.088       .  S
C1828      C1835   1.565       .  S
H1829      C2510   1.087       .  S
H1832      C2515   1.088       .  S
C1833      C2522   1.512       .  S
C1833      C2527   1.535       .  S
C1833      C1837   1.512       .  S
C1833      C1990   1.481       .  S
C1834      C2521   1.512       .  S
C1834      C2523   1.383       .  D
C1834      H1841   1.085       .  S
C1835      C1836   1.581       .  S
C1835      C2522   1.383       .  D
C1836      C1840   1.585       .  S
C1836      C1838   1.565       .  S
C1836      H1842   1.107       .  S
C1837      C1838   1.365       .  D
C1837      H1843   1.083       .  S
C1838      C1850   1.497       .  S
C1839      C2521   1.535       .  S
C1839      C2528   1.369       .  D
C1839      H1844   1.086       .  S
C1840      C2527   1.369       .  D
C1845      C1846   1.510       .  S
C1845      C1851   1.528       .  S
C1845      C1849   1.541       .  S
C1845      C1988   1.484       .  S
C1846      C1847   1.362       .  D
C1846      H1853   1.087       .  S
C1847      C1848   1.606       .  S
C1848      C1852   1.591       .  S
C1848      C1850   1.525       .  S
C1848      H1854   1.107       .  S
C1849      C1850   1.378       .  D
C1849      H1855   1.083       .  S
C1851      C1852   1.375       .  D
C1851      H1856   1.086       .  S
C1852      C1859   1.568       .  S
C1857      C1858   1.513       .  S
C1857      C1863   1.525       .  S
C1857      C1861   1.519       .  S
C1857      C1986   1.472       .  S
C1858      C1859   1.379       .  D
C1858      H1865   1.084       .  S
C1859      C1860   1.584       .  S
C1860      C1864   1.587       .  S
C1860      C1862   1.567       .  S
C1860      H1866   1.107       .  S
C1861      C1862   1.369       .  D
C1861      H1867   1.083       .  S
C1863      C1864   1.362       .  D
C1863      H1868   1.086       .  S
C1869      C1870   1.526       .  S
C1869      C1875   1.504       .  S
C1869      C1873   1.540       .  S
C1869      C1983   1.475       .  S
C1870      C1871   1.375       .  D
C1870      H1877   1.086       .  S
C1871      C1872   1.592       .  S
C1871      C1888   1.569       .  S
C1872      C1876   1.608       .  S
C1872      C1874   1.529       .  S
C1872      H1878   1.107       .  S
C1873      C1874   1.375       .  D
C1873      H1879   1.083       .  S
C1875      C1876   1.359       .  D
C1875      H1880   1.087       .  S
C1881      C1882   1.531       .  S
C1881      C1887   1.509       .  S
C1881      C1885   1.519       .  S
C1881      C1981   1.482       .  S
C1882      C1883   1.367       .  D
C1882      H1889   1.086       .  S
C1883      C1884   1.592       .  S
C1883      C2339   1.521       .  S
C1884      C1888   1.588       .  S
C1884      C1886   1.563       .  S
C1884      H1890   1.108       .  S
C1885      C1886   1.372       .  D
C1885      H1891   1.083       .  S
C1887      C1888   1.379       .  D
C1887      H1892   1.084       .  S
C1893      C1894   1.524       .  S
C1893      C1899   1.507       .  S
C1893      C1897   1.541       .  S
C1893      C1979   1.477       .  S
C1894      C1895   1.373       .  D
C1894      H1901   1.086       .  S
C1895      C1896   1.595       .  S
C1895      C1912   1.568       .  S
C1896      C1900   1.610       .  S
C1896      C1898   1.532       .  S
C1896      H1902   1.108       .  S
C1897      C1898   1.375       .  D
C1897      H1903   1.083       .  S
C1899      C1900   1.362       .  D
C1899      H1904   1.087       .  S
C1900      C2356   1.513   1_556  S
C1905      C1906   1.530       .  S
C1905      C1911   1.511       .  S
C1905      C1909   1.516       .  S
C1905      C1978   1.479       .  S
C1906      C1907   1.366       .  D
C1906      H1913   1.086       .  S
C1907      C1908   1.590       .  S
C1908      C1912   1.585       .  S
C1908      C1910   1.561       .  S
C1908      H1914   1.107       .  S
C1909      C1910   1.369       .  D
C1909      H1915   1.083       .  S
C1911      C1912   1.381       .  D
C1911      H1916   1.084       .  S
In1917     O2607   2.208       .  S
In1917     O2608   2.173       .  S
In1917     O2616   2.206       .  S
In1917     O1922   2.266       .  S
In1917     O1924   2.265       .  S
In1917     O2613   2.166       .  S
In1917     O1926   2.198       .  S
In1917     O1929   2.216       .  S
C1918      O1924   1.276       .  A
C1918      O1926   1.262       .  A
C1918      C1980   1.443       .  S
O1919     In2605   2.208       .  S
O1919      C1927   1.267       .  A
O1920     In2605   2.173       .  S
O1920      C1927   1.266       .  A
C1921      O2616   1.263       .  A
C1921      O1922   1.279       .  A
C1921      C1989   1.446       .  S
C1923      O2613   1.268       .  A
C1923      O1929   1.269       .  A
O1925     In2605   2.166   1_565  S
O1925      C2611   1.268       .  A
C1927      C1973   1.415       .  S
O1928     In2605   2.206       .  S
O1928      C2609   1.263       .  A
In1930     O2620   2.234       .  S
In1930     O2621   2.158       .  S
In1930     O1941   2.200       .  S
In1930     O1935   2.266       .  S
In1930     O1937   2.271       .  S
In1930     O2626   2.169       .  S
In1930     O2627   2.178       .  S
In1930     O1942   2.206       .  S
C1931      O1937   1.278       .  A
C1931      O2627   1.260       .  A
C1931      C1991   1.438       .  S
O1932     In2618   2.234       .  S
O1932      C1940   1.270   1_565  A
O1933     In2618   2.158   1_545  S
O1933      C1940   1.264       .  A
C1934      O1941   1.262       .  A
C1934      O1935   1.280       .  A
C1934      C1982   1.445       .  S
C1936      O2626   1.266       .  A
C1936      O1942   1.268       .  A
C1936      C1975   1.415       .  S
O1938     In2618   2.169       .  S
O1938      C2624   1.266       .  A
O1939     In2618   2.178       .  S
O1939      C2619   1.260       .  A
C1940      C1972   1.416       .  S
In1943     O1945   2.214       .  S
In1943     O1946   2.155       .  S
In1943     O1954   2.206       .  S
In1943     O1948   2.254       .  S
In1943     O1950   2.269       .  S
In1943     O1951   2.164       .  S
In1943     O1952   2.205       .  S
In1943     O1955   2.221       .  S
C1944      O1950   1.278       .  A
C1944      O1952   1.264       .  A
C1944      C1987   1.449       .  S
O1945      C1953   1.271       .  A
O1946      C1953   1.269       .  A
C1947      O1954   1.267       .  A
C1947      O1948   1.281       .  A
C1947      C1977   1.444       .  S
C1949      O1951   1.267       .  A
C1949      O1955   1.271       .  A
C1953      C1974   1.414       .  S
In1956     O1958   2.205       .  S
In1956     O1959   2.171       .  S
In1956     O1967   2.200       .  S
In1956     O1961   2.235       .  S
In1956     O1963   2.248       .  S
In1956     O1964   2.163       .  S
In1956     O1965   2.194       .  S
In1956     O1968   2.219       .  S
C1957      O1963   1.277       .  A
C1957      O1965   1.266       .  A
C1957      C1984   1.440       .  S
O1958      C1966   1.271       .  A
O1959      C1966   1.270       .  A
C1960      O1967   1.268       .  A
C1960      O1961   1.280       .  A
C1960      C1985   1.437       .  S
C1962      O1964   1.270       .  A
C1962      O1968   1.272       .  A
C1962      C1969   1.419       .  S
C1966      C1971   1.420       .  S
C1969      C1970   1.197       .  T
C1971      C1972   1.196       .  T
C1973      C1974   1.194       .  T
C1975      C1976   1.194   1_655  T
C1977      C1978   1.212       .  T
C1979      C1980   1.211       .  T
C1981      C1982   1.213       .  T
C1983      C1984   1.210       .  T
C1985      C1986   1.207       .  T
C1987      C1988   1.215       .  T
C1989      C2678   1.213       .  T
C1990      C2677   1.213       .  T
C1991      C2680   1.209       .  T
C1992      C2679   1.209       .  T
C1993      C1994   1.190       .  T
C1995      C1996   1.192       .  T
C1997      C1998   1.194       .  T
C1999      C2000   1.196       .  T
C2001      C2690   1.212       .  T
C2002      C2689   1.212       .  T
C2003      C2692   1.211       .  T
C2004      C2691   1.211   1_545  T
C2005      C2006   1.210       .  T
C2007      C2008   1.207       .  T
C2009      C2010   1.210       .  T
C2011      C2012   1.208       .  T
C2013      C2014   1.207       .  T
C2015      C2016   1.210       .  T
C2017      C2018   1.211       .  T
C2019      C2020   1.214       .  T
C2021      C2022   1.196       .  T
C2023      C2024   1.210       .  T
C2025      C2026   1.194       .  T
C2027      C2028   1.210       .  T
C2029      C2030   1.194   1_455  T
C2031      C2032   1.193       .  T
C2033      C2034   1.209       .  T
C2035      C2036   1.213       .  T
C2037      C2038   1.209       .  T
C2039      C2040   1.212       .  T
C2041      C2042   1.190       .  T
C2043      C2044   1.193       .  T
C2045      C2046   1.196       .  T
C2047      C2048   1.197       .  T
C2049      C2050   1.209       .  T
C2051      C2052   1.210       .  T
C2053      C2054   1.212       .  T
C2055      C2056   1.210       .  T
C2057      C2058   1.208       .  T
C2058      C2201   1.436       .  S
C2059      C2060   1.212       .  T
C2061      C2062   1.211       .  T
C2063      C2064   1.210       .  T
C2064      C2178   1.442       .  S
C2065      C2066   1.525       .  S
C2065      C2071   1.513       .  S
C2065      C2069   1.519       .  S
C2065      C2751   1.476       .  S
C2066      C2067   1.362       .  D
C2067      C2068   1.591       .  S
C2068      C2072   1.587       .  S
C2068      C2070   1.565       .  S
C2068      H2074   1.107       .  S
C2069      C2070   1.370       .  D
C2069      H2075   1.083       .  S
C2070      C2106   1.504       .  S
C2071      C2072   1.380       .  D
C2071      H2076   1.084       .  S
C2072      C2079   1.568       .  S
C2077      C2078   1.527       .  S
C2077      C2083   1.505       .  S
C2077      C2081   1.542       .  S
C2077      C2750   1.477       .  S
C2078      C2079   1.375       .  D
C2078      H2085   1.086       .  S
C2079      C2080   1.590       .  S
C2080      C2084   1.605       .  S
C2080      C2082   1.528       .  S
C2080      H2086   1.107       .  S
C2081      C2082   1.378       .  D
C2081      H2087   1.083       .  S
C2082      C2094   1.498       .  S
C2083      C2084   1.357       .  D
C2083      H2088   1.087       .  S
C2084      C2380   1.507       .  S
C2089      C2090   1.532       .  S
C2089      C2095   1.511       .  S
C2089      C2093   1.516       .  S
C2089      C2747   1.480       .  S
C2090      C2091   1.368       .  D
C2090      H2097   1.086       .  S
C2091      C2092   1.585       .  S
C2091      C2399   1.514       .  S
C2092      C2096   1.580       .  S
C2092      C2094   1.564       .  S
C2092      H2098   1.107       .  S
C2093      C2094   1.367       .  D
C2093      H2099   1.083       .  S
C2095      C2096   1.383       .  D
C2095      H2100   1.084       .  S
C2096      C2103   1.564       .  S
C2101      C2102   1.523       .  S
C2101      C2107   1.505       .  S
C2101      C2105   1.547       .  S
C2101      C2745   1.472       .  S
C2102      C2103   1.368       .  D
C2102      H2109   1.087       .  S
C2103      C2104   1.594       .  S
C2104      C2108   1.610       .  S
C2104      C2106   1.528       .  S
C2104      H2110   1.107       .  S
C2105      C2106   1.377       .  D
C2105      H2111   1.083       .  S
C2107      C2108   1.361       .  D
C2113      C2114   1.512       .  S
C2113      C2119   1.531       .  S
C2113      C2117   1.514       .  S
C2113      C2743   1.477       .  S
C2114      C2115   1.379       .  D
C2114      H2121   1.082       .  S
C2115      C2116   1.588       .  S
C2115      C2132   1.568       .  S
C2116      C2120   1.587       .  S
C2116      C2118   1.560       .  S
C2116      H2122   1.108       .  S
C2117      C2118   1.369       .  D
C2117      H2123   1.082       .  S
C2118      C2142   1.499       .  S
C2119      C2120   1.367       .  D
C2119      H2124   1.086       .  S
C2120      C2232   1.514       .  S
C2125      C2126   1.506       .  S
C2125      C2131   1.527       .  S
C2125      C2129   1.544       .  S
C2125      C2741   1.481       .  S
C2126      C2127   1.359       .  D
C2126      H2133   1.087       .  S
C2127      C2128   1.606       .  S
C2127      C2251   1.511       .  S
C2128      C2130   1.528       .  S
C2128      H2134   1.107       .  S
C2129      C2130   1.378       .  D
C2129      H2135   1.083       .  S
C2130      C2154   1.500       .  S
C2137      C2138   1.504       .  S
C2137      C2143   1.527       .  S
C2137      C2141   1.540       .  S
C2137      C2739   1.475   1_565  S
C2138      C2139   1.361       .  D
C2138      H2145   1.087       .  S
C2139      C2140   1.614       .  S
C2139      C2215   1.511       .  S
C2140      C2144   1.592       .  S
C2140      C2142   1.528       .  S
C2140      H2146   1.107       .  S
C2141      C2142   1.373       .  D
C2141      H2147   1.082       .  S
C2143      C2144   1.373       .  D
C2143      H2148   1.087   1_565  S
C2144      C2151   1.568       .  S
C2149      C2150   1.507       .  S
C2149      C2155   1.530       .  S
C2149      C2153   1.518       .  S
C2149      C2738   1.476       .  S
C2152      C2156   1.584       .  S
C2152      C2154   1.567       .  S
C2152      H2158   1.107       .  S
C2153      C2154   1.370       .  D
C2153      H2159   1.083       .  S
C2155      C2156   1.365       .  D
C2155      H2160   1.086       .  S
C2156      C2244   1.511       .  S
In2161     O2163   2.224       .  S
In2161     O2164   2.159       .  S
In2161     O2172   2.206       .  S
In2161     O2166   2.241       .  S
In2161     O2168   2.251       .  S
In2161     O2169   2.155       .  S
In2161     O2170   2.195       .  S
In2161     O2173   2.216       .  S
C2162      O2168   1.278       .  A
C2162      O2170   1.266       .  A
C2162      C2749   1.442       .  S
O2163      C2171   1.273       .  A
O2164      C2171   1.268       .  A
C2165      O2172   1.269       .  A
C2165      O2166   1.280       .  A
C2165      C2744   1.442       .  S
C2167      O2169   1.271       .  A
C2167      O2173   1.274       .  A
C2167      C2733   1.418       .  S
C2171      C2735   1.419       .  S
In2174     O2176   2.220   1_545  S
In2174     O2177   2.156   1_545  S
In2174     O2185   2.210   1_545  S
In2174     O2181   2.250       .  S
In2174     O2182   2.161   1_545  S
In2174     O2183   2.199   1_545  S
C2175      O2181   1.277       .  A
C2175      O2183   1.267   1_545  A
C2175      C2740   1.443       .  S
O2176      C2184   1.273       .  A
O2177      C2184   1.269       .  A
C2178      O2185   1.269   1_545  A
C2180      O2182   1.271   1_545  A
C2180      C2731   1.415       .  S
C2184      C2736   1.418       .  S
In2187     O2189   2.213       .  S
In2187     O2190   2.177       .  S
In2187     O2198   2.201       .  S
In2187     O2192   2.269       .  S
In2187     O2194   2.271       .  S
In2187     O2195   2.163       .  S
In2187     O2196   2.203       .  S
In2187     O2199   2.210       .  S
C2188      O2194   1.279       .  A
C2188      O2196   1.261       .  A
C2188      C2748   1.444       .  S
O2189      C2197   1.267       .  A
O2190      C2197   1.264       .  A
C2191      O2198   1.261       .  A
C2191      O2192   1.276       .  A
C2191      C2742   1.444       .  S
C2193      O2195   1.266       .  A
C2193      O2199   1.267       .  A
C2193      C2729   1.409       .  S
C2197      C2734   1.420       .  S
In2200     O2202   2.186       .  S
In2200     O2203   2.176       .  S
In2200     O2211   2.191       .  S
In2200     O2205   2.266       .  S
In2200     O2208   2.153       .  S
In2200     O2209   2.186       .  S
C2201      O2209   1.259       .  A
O2202      C2210   1.264       .  A
O2203      C2210   1.265       .  A
C2204      O2211   1.259       .  A
C2204      O2205   1.278       .  A
C2204      C2737   1.438       .  S
C2206      O2208   1.262   1_545  A
C2206      C2732   1.411       .  S
C2210      C2730   1.410       .  S
C2213      C2214   1.533       .  S
C2213      C2219   1.511       .  S
C2213      C2217   1.518       .  S
C2213      C2728   1.480       .  S
C2214      C2215   1.368       .  D
C2214      H2221   1.086       .  S
C2215      C2216   1.582       .  S
C2216      C2220   1.585       .  S
C2216      C2218   1.562       .  S
C2216      H2222   1.107       .  S
C2217      C2218   1.371       .  D
C2217      H2223   1.083       .  S
C2218      C2230   1.500       .  S
C2219      C2220   1.379       .  D
C2219      H2224   1.083       .  S
C2220      C2239   1.567       .  S
C2225      C2226   1.527       .  S
C2225      C2231   1.504       .  S
C2225      C2229   1.543       .  S
C2225      C2725   1.473       .  S
C2226      C2227   1.373       .  D
C2226      H2233   1.086       .  S
C2227      C2228   1.591       .  S
C2227      C2256   1.568       .  S
C2228      C2232   1.613       .  S
C2228      C2230   1.530       .  S
C2228      H2234   1.107       .  S
C2229      C2230   1.375       .  D
C2229      H2235   1.083       .  S
C2231      C2232   1.359       .  D
C2231      H2236   1.087       .  S
C2237      C2238   1.527       .  S
C2237      C2243   1.505       .  S
C2237      C2241   1.545       .  S
C2237      C2724   1.481   1_565  S
C2238      C2239   1.374       .  D
C2238      H2245   1.087   1_565  S
C2239      C2240   1.591       .  S
C2240      C2244   1.608       .  S
C2240      C2242   1.525       .  S
C2240      H2246   1.107       .  S
C2241      C2242   1.379       .  D
C2241      H2247   1.083       .  S
C2242      C2254   1.500       .  S
C2243      C2244   1.360       .  D
C2243      H2248   1.087       .  S
C2249      C2250   1.530       .  S
C2249      C2255   1.511       .  S
C2249      C2253   1.515       .  S
C2249      C2721   1.475       .  S
C2250      C2251   1.365       .  D
C2250      H2257   1.086       .  S
C2251      C2252   1.585       .  S
C2252      C2256   1.586       .  S
C2252      C2254   1.567       .  S
C2252      H2258   1.108       .  S
C2253      C2254   1.367       .  D
C2253      H2259   1.083       .  S
C2255      C2256   1.380       .  D
C2255      H2260   1.083       .  S
In2261     O2263   2.216       .  S
In2261     O2264   2.155       .  S
In2261     O2272   2.190       .  S
In2261     O2266   2.252       .  S
In2261     O2268   2.248       .  S
In2261     O2269   2.166       .  S
In2261     O2270   2.203       .  S
In2261     O2273   2.209       .  S
C2262      O2268   1.279       .  A
C2262      O2270   1.266       .  A
C2262      C2716   1.441       .  S
O2263      C2271   1.271       .  A
O2264      C2271   1.268       .  A
C2265      O2272   1.264       .  A
C2265      O2266   1.277       .  A
C2265      C2726   1.438       .  S
C2267      O2269   1.268       .  A
C2267      O2273   1.270       .  A
C2267      C2718   1.416       .  S
C2271      C2719   1.412       .  S
In2274     O2276   2.221       .  S
In2274     O2277   2.167       .  S
In2274     O2285   2.199       .  S
In2274     O2279   2.251       .  S
In2274     O2281   2.263       .  S
In2274     O2282   2.181       .  S
In2274     O2283   2.193       .  S
In2274     O2286   2.202       .  S
C2275      O2281   1.276       .  A
C2275      O2283   1.262       .  A
C2275      C2712   1.440       .  S
O2276      C2284   1.268       .  A
O2277      C2284   1.267       .  A
C2278      O2285   1.264       .  A
C2278      O2279   1.279       .  A
C2278      C2722   1.439       .  S
C2280      O2282   1.267       .  A
C2280      O2286   1.268       .  A
C2280      C2713   1.418       .  S
In2287     O2290   2.165       .  S
In2287     O2298   2.204   1_545  S
In2287     O2295   2.148   1_545  S
In2287     O2296   2.197       .  S
In2287     O2299   2.222   1_545  S
C2288      O2296   1.263       .  A
C2288      C2723   1.445       .  S
O2289      C2297   1.270       .  A
C2291      O2292   1.281       .  A
C2291      C2708   1.447       .  S
C2293      O2295   1.267       .  A
C2293      O2299   1.272       .  A
C2293      C2714   1.412       .  S
In2300     O2303   2.164       .  S
In2300     O2311   2.203       .  S
In2300     O2308   2.162       .  S
In2300     O2309   2.198       .  S
In2300     O2312   2.201       .  S
C2301      O2307   1.277       .  A
C2301      C2705   1.442       .  S
O2302      C2310   1.271       .  A
C2304      O2311   1.266       .  A
C2304      C2727   1.444       .  S
C2306      O2308   1.269       .  A
C2306      O2312   1.270       .  A
C2306      C2720   1.414       .  S
C2310      C2710   1.417       .  S
C2313      C2314   1.506       .  S
C2313      C2319   1.526       .  S
C2313      C2317   1.548       .  S
C2313      C2711   1.477       .  S
C2314      C2315   1.360   1_554  D
C2314      H2321   1.087       .  S
C2315      C2316   1.609       .  S
C2315      C2595   1.514       .  S
C2316      C2320   1.592       .  S
C2316      C2318   1.528   1_556  S
C2316      H2322   1.106       .  S
C2317      C2318   1.378       .  D
C2317      H2323   1.083       .  S
C2319      C2320   1.373   1_554  D
C2319      H2324   1.087       .  S
C2320      C2351   1.567   1_556  S
C2325      C2326   1.516       .  S
C2325      C2331   1.527       .  S
C2325      C2329   1.520       .  S
C2325      C2715   1.477       .  S
C2326      C2327   1.381       .  D
C2326      H2333   1.082       .  S
C2327      C2328   1.584   1_554  S
C2327      C2344   1.571   1_554  S
C2328      C2332   1.585       .  S
C2328      C2330   1.566   1_556  S
C2328      H2334   1.107       .  S
C2329      C2330   1.370       .  D
C2329      H2335   1.083       .  S
C2331      C2332   1.363   1_554  D
C2331      H2336   1.086       .  S
C2332      C2564   1.508       .  S
C2337      C2338   1.508       .  S
C2337      C2343   1.526       .  S
C2337      C2341   1.542       .  S
C2337      C2706   1.477       .  S
C2338      C2339   1.360   1_554  D
C2339      C2340   1.613       .  S
C2340      C2344   1.595       .  S
C2340      C2342   1.528   1_556  S
C2340      H2346   1.107       .  S
C2341      C2342   1.375       .  D
C2341      H2347   1.083       .  S
C2343      C2344   1.374   1_554  D
C2343      H2348   1.086       .  S
C2349      C2350   1.510       .  S
C2349      C2355   1.534       .  S
C2349      C2353   1.518       .  S
C2349      C2707   1.483       .  S
C2350      C2351   1.379       .  D
C2350      H2357   1.084       .  S
C2351      C2352   1.584   1_554  S
C2352      C2356   1.583   1_556  S
C2352      C2354   1.564   1_556  S
C2352      H2358   1.107       .  S
C2353      C2354   1.371       .  D
C2353      H2359   1.083       .  S
C2355      C2356   1.368       .  D
C2355      H2360   1.086       .  S
C2361      C2362   1.507       .  S
C2361      C2367   1.526       .  S
C2361      C2365   1.544       .  S
C2361      C2704   1.477       .  S
C2362      C2363   1.358       .  D
C2362      H2369   1.087       .  S
C2363      C2364   1.606       .  S
C2364      C2368   1.591       .  S
C2364      C2366   1.527       .  S
C2364      H2370   1.107       .  S
C2365      C2366   1.379       .  D
C2365      H2371   1.083       .  S
C2366      C2390   1.497       .  S
C2367      C2368   1.373       .  D
C2367      H2372   1.086       .  S
C2368      C2375   1.567       .  S
C2373      C2374   1.515       .  S
C2373      C2379   1.524       .  S
C2373      C2377   1.515       .  S
C2373      C2702   1.472       .  S
C2374      C2375   1.381       .  D
C2374      H2381   1.083       .  S
C2375      C2376   1.584       .  S
C2376      C2380   1.589       .  S
C2376      C2378   1.563       .  S
C2376      H2382   1.107       .  S
C2377      C2378   1.370       .  D
C2377      H2383   1.082       .  S
C2378      C2402   1.499       .  S
C2379      C2380   1.361       .  D
C2379      H2384   1.086       .  S
C2385      C2386   1.510       .  S
C2385      C2391   1.528       .  S
C2385      C2389   1.516       .  S
C2385      C2700   1.474       .  S
C2386      C2387   1.383       .  D
C2386      H2393   1.084       .  S
C2387      C2388   1.581       .  S
C2387      C2404   1.566       .  S
C2388      C2392   1.584       .  S
C2388      C2390   1.565       .  S
C2388      H2394   1.107       .  S
C2389      C2390   1.367       .  D
C2389      H2395   1.083       .  S
C2391      C2392   1.364       .  D
C2391      H2396   1.086       .  S
C2397      C2398   1.509       .  S
C2397      C2403   1.524       .  S
C2397      C2401   1.542       .  S
C2397      C2698   1.474       .  S
C2398      C2399   1.365       .  D
C2398      H2405   1.087       .  S
C2399      C2400   1.611       .  S
C2400      C2404   1.594       .  S
C2400      C2402   1.527       .  S
C2400      H2406   1.107       .  S
C2401      C2402   1.373       .  D
C2401      H2407   1.083       .  S
C2403      C2404   1.369       .  D
C2403      H2408   1.088       .  S
C2409      C2410   1.524       .  S
C2409      C2415   1.504       .  S
C2409      C2413   1.541       .  S
C2409      C2695   1.470       .  S
C2410      C2411   1.372       .  D
C2410      H2417   1.087       .  S
C2411      C2412   1.593       .  S
C2411      C2428   1.566   1_655  S
C2412      C2416   1.609       .  S
C2412      C2414   1.528       .  S
C2412      H2418   1.107       .  S
C2413      C2414   1.374       .  D
C2413      H2419   1.083       .  S
C2414      C2438   1.498       .  S
C2415      C2416   1.360       .  D
C2415      H2420   1.087       .  S
C2416      C2552   1.507       .  S
C2421      C2422   1.527       .  S
C2421      C2427   1.510       .  S
C2421      C2425   1.518       .  S
C2421      C2693   1.478       .  S
C2422      C2423   1.364       .  D
C2422      H2429   1.086       .  S
C2423      C2424   1.589       .  S
C2423      C2535   1.513       .  S
C2424      C2426   1.564       .  S
C2424      H2430   1.108       .  S
C2425      C2426   1.371       .  D
C2425      H2431   1.083       .  S
C2426      C2450   1.502       .  S
C2433      C2437   1.515       .  S
C2433      C2692   1.478       .  S
C2434      H2441   1.086   1_545  S
C2435      C2436   1.591       .  S
C2435      C2511   1.515       .  S
C2436      C2440   1.586       .  S
C2436      C2438   1.561       .  S
C2436      H2442   1.107       .  S
C2437      C2438   1.368       .  D
C2437      H2443   1.082       .  S
C2439      H2444   1.082   1_545  S
C2440      C2447   1.568       .  S
C2445      C2449   1.540       .  S
C2445      C2690   1.479       .  S
C2448      C2452   1.608       .  S
C2448      C2450   1.532       .  S
C2448      H2454   1.107       .  S
C2449      C2450   1.375       .  D
C2449      H2455   1.083       .  S
C2451      H2456   1.087       .  S
C2452      C2528   1.515       .  S
In2457     O2459   2.205       .  S
In2457     O2460   2.155       .  S
In2457     O2468   2.207       .  S
In2457     O2462   2.225       .  S
In2457     O2464   2.240       .  S
In2457     O2465   2.157       .  S
In2457     O2466   2.188       .  S
In2457     O2469   2.219       .  S
C2458      O2464   1.277       .  A
C2458      O2466   1.267       .  A
C2458      C2696   1.437       .  S
O2459      C2467   1.273       .  A
O2460      C2467   1.271       .  A
C2461      O2468   1.270       .  A
C2461      O2462   1.279       .  A
C2461      C2701   1.437       .  S
C2463      O2465   1.270       .  A
C2463      O2469   1.273       .  A
C2463      C2687   1.418       .  S
C2467      C2685   1.415       .  S
In2470     O2481   2.187   1_565  S
In2470     O2475   2.254       .  S
In2470     O2477   2.252       .  S
In2470     O2482   2.211       .  S
C2471      O2477   1.280       .  A
C2471      C2691   1.443       .  S
O2472      C2480   1.272       .  A
O2473      C2480   1.266       .  A
C2474      O2481   1.264   1_565  A
C2474      O2475   1.278       .  A
C2474      C2703   1.439       .  S
C2476      O2482   1.272       .  A
C2476      C2684   1.411       .  S
C2480      C2688   1.418       .  S
In2483     O2488   2.261       .  S
In2483     O2490   2.255       .  S
In2483     O2492   2.197       .  S
In2483     O2495   2.203       .  S
C2484      O2490   1.278       .  A
C2484      O2492   1.262       .  A
C2484      C2699   1.437       .  S
O2485      C2493   1.266       .  A
O2486      C2493   1.267       .  A
C2487      O2488   1.275       .  A
C2487      C2689   1.443       .  S
C2489      O2495   1.266       .  A
C2489      C2683   1.415       .  S
C2493      C2682   1.409       .  S
In2496     O2498   2.227       .  S
In2496     O2499   2.157       .  S
In2496     O2507   2.201       .  S
In2496     O2501   2.257       .  S
In2496     O2503   2.263       .  S
In2496     O2504   2.161       .  S
In2496     O2505   2.191       .  S
In2496     O2508   2.192       .  S
C2497      O2503   1.277       .  A
C2497      O2505   1.262       .  A
C2497      C2697   1.441       .  S
O2498      C2506   1.269       .  A
O2499      C2506   1.265       .  A
C2500      O2507   1.263       .  A
C2500      O2501   1.279       .  A
C2500      C2694   1.441       .  S
C2502      O2504   1.267       .  A
C2502      O2508   1.268       .  A
C2502      C2681   1.408       .  S
C2506      C2686   1.414       .  S
C2509      C2510   1.507       .  S
C2509      C2515   1.524       .  S
C2509      C2513   1.550       .  S
C2509      C2680   1.475       .  S
C2510      C2511   1.362       .  D
C2511      C2512   1.611       .  S
C2512      C2516   1.594       .  S
C2512      C2514   1.526       .  S
C2512      H2518   1.106       .  S
C2513      C2514   1.378       .  D
C2513      H2519   1.083       .  S
C2514      C2550   1.503       .  S
C2515      C2516   1.368       .  D
C2516      C2523   1.565       .  S
C2521      C2525   1.512       .  S
C2521      C2678   1.481       .  S
C2522      H2529   1.085   1_545  S
C2523      C2524   1.581       .  S
C2524      C2528   1.585       .  S
C2524      C2526   1.565       .  S
C2524      H2530   1.107       .  S
C2525      C2526   1.365       .  D
C2525      H2531   1.083       .  S
C2526      C2538   1.497       .  S
C2527      H2532   1.086       .  S
C2533      C2534   1.510       .  S
C2533      C2539   1.528       .  S
C2533      C2537   1.541       .  S
C2533      C2676   1.484       .  S
C2534      C2535   1.362       .  D
C2534      H2541   1.087       .  S
C2535      C2536   1.606       .  S
C2536      C2540   1.591       .  S
C2536      C2538   1.525       .  S
C2536      H2542   1.107       .  S
C2537      C2538   1.378       .  D
C2537      H2543   1.083       .  S
C2539      C2540   1.375       .  D
C2539      H2544   1.086       .  S
C2540      C2547   1.568       .  S
C2545      C2546   1.513       .  S
C2545      C2551   1.525       .  S
C2545      C2549   1.519       .  S
C2545      C2674   1.473       .  S
C2546      C2547   1.379       .  D
C2546      H2553   1.084       .  S
C2547      C2548   1.585       .  S
C2548      C2552   1.587       .  S
C2548      C2550   1.567       .  S
C2548      H2554   1.107       .  S
C2549      C2550   1.369       .  D
C2549      H2555   1.083       .  S
C2551      C2552   1.362       .  D
C2551      H2556   1.086       .  S
C2557      C2558   1.526       .  S
C2557      C2563   1.504       .  S
C2557      C2561   1.540       .  S
C2557      C2671   1.475       .  S
C2558      C2559   1.375       .  D
C2558      H2565   1.086       .  S
C2559      C2560   1.592       .  S
C2559      C2576   1.569       .  S
C2560      C2564   1.608       .  S
C2560      C2562   1.529       .  S
C2560      H2566   1.107       .  S
C2561      C2562   1.375       .  D
C2561      H2567   1.083       .  S
C2563      C2564   1.359       .  D
C2563      H2568   1.087       .  S
C2569      C2570   1.531       .  S
C2569      C2575   1.509       .  S
C2569      C2573   1.519       .  S
C2569      C2669   1.482       .  S
C2570      C2571   1.367       .  D
C2570      H2577   1.086   1_565  S
C2571      C2572   1.592       .  S
C2572      C2576   1.588       .  S
C2572      C2574   1.563       .  S
C2572      H2578   1.108       .  S
C2573      C2574   1.372       .  D
C2573      H2579   1.083       .  S
C2575      C2576   1.379       .  D
C2575      H2580   1.084       .  S
C2581      C2582   1.524       .  S
C2581      C2587   1.507       .  S
C2581      C2585   1.541       .  S
C2581      C2667   1.477       .  S
C2582      C2583   1.373       .  D
C2582      H2589   1.086       .  S
C2583      C2584   1.595       .  S
C2583      C2600   1.568       .  S
C2584      C2588   1.610       .  S
C2584      C2586   1.532       .  S
C2584      H2590   1.108       .  S
C2585      C2586   1.375       .  D
C2585      H2591   1.083       .  S
C2587      C2588   1.362       .  D
C2587      H2592   1.087   1_565  S
C2593      C2594   1.530       .  S
C2593      C2599   1.511       .  S
C2593      C2597   1.516       .  S
C2593      C2666   1.479       .  S
C2594      C2595   1.366       .  D
C2594      H2601   1.086       .  S
C2595      C2596   1.589       .  S
C2596      C2600   1.585       .  S
C2596      C2598   1.561       .  S
C2596      H2602   1.107       .  S
C2597      C2598   1.369       .  D
C2597      H2603   1.083       .  S
C2599      C2600   1.381       .  D
C2599      H2604   1.084       .  S
In2605     O2610   2.265   1_545  S
In2605     O2612   2.265   1_545  S
In2605     O2614   2.198       .  S
In2605     O2617   2.215   1_545  S
C2606      O2612   1.276       .  A
C2606      O2614   1.262   1_565  A
C2606      C2668   1.443       .  S
O2607      C2615   1.267       .  A
O2608      C2615   1.266       .  A
C2609      O2610   1.279   1_545  A
C2609      C2677   1.446       .  S
C2611      O2617   1.269       .  A
C2615      C2661   1.415       .  S
In2618     O2629   2.200       .  S
In2618     O2623   2.266       .  S
In2618     O2625   2.271       .  S
In2618     O2630   2.206       .  S
C2619      O2625   1.278       .  A
C2619      C2679   1.438       .  S
O2620      C2628   1.270       .  A
O2621      C2628   1.264       .  A
C2622      O2629   1.262       .  A
C2622      O2623   1.280       .  A
C2622      C2670   1.445       .  S
C2624      O2630   1.268       .  A
C2624      C2663   1.415       .  S
C2628      C2660   1.416       .  S
In2631     O2633   2.214       .  S
In2631     O2634   2.155       .  S
In2631     O2642   2.206       .  S
In2631     O2636   2.254       .  S
In2631     O2638   2.269       .  S
In2631     O2639   2.164       .  S
In2631     O2640   2.206       .  S
In2631     O2643   2.222       .  S
C2632      O2638   1.278       .  A
C2632      O2640   1.264       .  A
C2632      C2675   1.449       .  S
O2633      C2641   1.271       .  A
O2634      C2641   1.269       .  A
C2635      O2642   1.267       .  A
C2635      O2636   1.281       .  A
C2635      C2665   1.444       .  S
C2637      O2639   1.267       .  A
C2637      O2643   1.271       .  A
C2641      C2662   1.414       .  S
In2644     O2646   2.206       .  S
In2644     O2647   2.171       .  S
In2644     O2655   2.200       .  S
In2644     O2649   2.235       .  S
In2644     O2651   2.248       .  S
In2644     O2652   2.163       .  S
In2644     O2653   2.195       .  S
In2644     O2656   2.219       .  S
C2645      O2651   1.277       .  A
C2645      O2653   1.266       .  A
C2645      C2672   1.440       .  S
O2646      C2654   1.271       .  A
O2647      C2654   1.270       .  A
C2648      O2655   1.268       .  A
C2648      O2649   1.280       .  A
C2648      C2673   1.437       .  S
C2650      O2652   1.270       .  A
C2650      O2656   1.272       .  A
C2650      C2657   1.419       .  S
C2654      C2659   1.420       .  S
C2657      C2658   1.197       .  T
C2659      C2660   1.196       .  T
C2661      C2662   1.194       .  T
C2663      C2664   1.194   1_655  T
C2665      C2666   1.212       .  T
C2667      C2668   1.211       .  T
C2669      C2670   1.213       .  T
C2671      C2672   1.210       .  T
C2673      C2674   1.208       .  T
C2675      C2676   1.215       .  T
C2681      C2682   1.190       .  T
C2683      C2684   1.192       .  T
C2685      C2686   1.194       .  T
C2687      C2688   1.196       .  T
C2693      C2694   1.210       .  T
C2695      C2696   1.207       .  T
C2697      C2698   1.210       .  T
C2699      C2700   1.208       .  T
C2701      C2702   1.207       .  T
C2703      C2704   1.210       .  T
C2705      C2706   1.211       .  T
C2707      C2708   1.214       .  T
C2709      C2710   1.196       .  T
C2711      C2712   1.210       .  T
C2713      C2714   1.195       .  T
C2715      C2716   1.210       .  T
C2717      C2718   1.194   1_455  T
C2719      C2720   1.193       .  T
C2721      C2722   1.209       .  T
C2723      C2724   1.213       .  T
C2725      C2726   1.209       .  T
C2727      C2728   1.212       .  T
C2729      C2730   1.190       .  T
C2731      C2732   1.193       .  T
C2733      C2734   1.196       .  T
C2735      C2736   1.197       .  T
C2737      C2738   1.209       .  T
C2739      C2740   1.211       .  T
C2741      C2742   1.212       .  T
C2743      C2744   1.210       .  T
C2745      C2746   1.208       .  T
C2747      C2748   1.212       .  T
C2749      C2750   1.211       .  T
C2751      C2752   1.210       .  T
