geometry optimzed in LAMMPS
_audit_creation_date              2020-11-30 
_audit_creation_method            'lammps2cif' 
_symmetry_space_group_name_H-M    'P1' 
_symmetry_Int_Tables_number       1 
_symmetry_cell_setting            triclinic 
loop_ 
_symmetry_equiv_pos_as_xyz 
  x,y,z 
_cell_length_a                    42.219168234684595 
_cell_length_b                    42.21786093107831 
_cell_length_c                    42.15824031117262 
_cell_angle_alpha                 89.98205379113483 
_cell_angle_beta                  90.24082713060962 
_cell_angle_gamma                 89.73500393272982 
loop_ 
_atom_site_label 
_atom_site_type_symbol 
_atom_site_fract_x 
_atom_site_fract_y 
_atom_site_fract_z 
_atom_site_charge 
C1          C  0.72237522  0.72382636  0.68176477     0.02900
C2          C  0.73659995  0.69702075  0.69562521    -0.13250
C3          C  0.72217219  0.68139633  0.72116125     0.00400
C4          C  0.69440004  0.69425136  0.73422592    -0.11780
C5          C  0.68066259  0.72172381  0.72147607     0.02890
C6          C  0.69473335  0.73651551  0.69531417    -0.11200
H7          H  0.75826338  0.68754508  0.68565421     0.08480
H8          H  0.68280572  0.68233129  0.75373834     0.06010
H9          H  0.68384051  0.75752054  0.68517651     0.05860
C10         C  0.72194579  0.20621524  0.68149480     0.02900
C11         C  0.69612444  0.19143955  0.69618030    -0.13250
C12         C  0.68266901  0.20435468  0.72369509     0.00400
C13         C  0.69681345  0.23080325  0.73796824    -0.11780
C14         C  0.72308370  0.24541876  0.72399901     0.02890
C15         C  0.73526137  0.23323518  0.69556971    -0.11200
H16         H  0.68568386  0.17059219  0.68549007     0.08480
H17         H  0.68687384  0.24048753  0.75957850     0.06010
H18         H  0.75467277  0.24526160  0.68399342     0.05860
C19         C  0.20363607  0.20278127  0.68294308     0.02900
C20         C  0.19021593  0.23049040  0.69551271    -0.13250
C21         C  0.20576037  0.24723231  0.71979485     0.00400
C22         C  0.23416757  0.23493574  0.73241202    -0.11780
C23         C  0.24666468  0.20606692  0.72152462     0.02890
C24         C  0.23143941  0.19040820  0.69643240    -0.11200
H25         H  0.16823872  0.23950414  0.68562737     0.08480
H26         H  0.24678382  0.24804917  0.75054066     0.06010
H27         H  0.24143825  0.16868351  0.68700940     0.05860
C28         C  0.24517638  0.72294713  0.72342987     0.02900
C29         C  0.23232549  0.73588985  0.69545426    -0.13250
C30         C  0.20548444  0.72233938  0.68127740     0.00400
C31         C  0.19193827  0.69523811  0.69469316    -0.11780
C32         C  0.20492376  0.68171321  0.72218085     0.02890
C33         C  0.23112367  0.69596438  0.73676747    -0.11200
H34         H  0.24360544  0.75597775  0.68426280     0.08480
H35         H  0.17173167  0.68422690  0.68328463     0.06010
H36         H  0.24101428  0.68556644  0.75816142     0.05860
C37         C  0.24618001  0.72334630  0.20334549     0.02900
C38         C  0.23217003  0.73745198  0.22997142    -0.13250
C39         C  0.20586320  0.72360403  0.24455169     0.00400
C40         C  0.19216296  0.69664901  0.23085737    -0.11780
C41         C  0.20544669  0.68246248  0.20382186     0.02890
C42         C  0.23299139  0.69557794  0.19062687    -0.11200
H43         H  0.24234035  0.75881194  0.23989941     0.08480
H44         H  0.17152216  0.68617551  0.24180045     0.06010
H45         H  0.24451777  0.68389595  0.17088949     0.05860
C46         C  0.72277853  0.72105476  0.24643526     0.02900
C47         C  0.69663436  0.73578613  0.23195283    -0.13250
C48         C  0.68380908  0.72395903  0.20362845     0.00400
C49         C  0.69742111  0.69699762  0.18965232    -0.11780
C50         C  0.72320635  0.68148517  0.20417683     0.02890
C51         C  0.73633415  0.69427027  0.23205310    -0.11200
H52         H  0.68575267  0.75621003  0.24313517     0.08480
H53         H  0.68725065  0.68746670  0.16806516     0.06010
H54         H  0.75654091  0.68278004  0.24312977     0.05860
C55         C  0.72249365  0.20569296  0.24597980     0.02900
C56         C  0.73635172  0.23230471  0.23178772    -0.13250
C57         C  0.72282957  0.24603152  0.20454727     0.00400
C58         C  0.69617212  0.23186826  0.19056429    -0.11780
C59         C  0.68203348  0.20535483  0.20459738     0.02890
C60         C  0.69568062  0.19201879  0.23191096    -0.11200
H61         H  0.75698670  0.24304027  0.24264468     0.08480
H62         H  0.68563385  0.24228069  0.16949377     0.06010
H63         H  0.68469791  0.17163297  0.24288250     0.05860
N64         N  0.78202745  0.51284931  0.77943518    -0.27520
N65         N  0.79945710  0.52841976  0.80030851    -0.35380
C66         C  0.79393531  0.55965900  0.79706222     0.00820
C67         C  0.77174247  0.56395170  0.77314706     0.06840
C68         C  0.76499557  0.53376579  0.76231903    -0.06250
H69         H  0.80555259  0.57786259  0.81082616     0.07510
H70         H  0.74864417  0.52743393  0.74356091     0.08710
Cu71       Cu  0.83013894  0.50653711  0.83202895     0.44170
Cu72       Cu  0.78151342  0.46387750  0.77555420     0.41990
Cu73       Cu  0.83183045  0.42066263  0.83022754     0.43880
N74         N  0.85958316  0.47910669  0.86043849    -0.34910
N75         N  0.86023807  0.44779235  0.85976476    -0.29160
C76         C  0.88199380  0.43731118  0.88072219    -0.05260
C77         C  0.89567430  0.46328835  0.89519433     0.06950
C78         C  0.88091939  0.48939259  0.88181176     0.00750
H79         H  0.88749147  0.41262187  0.88500329     0.08400
H80         H  0.88538732  0.51403506  0.88712399     0.07480
N81         N  0.80102415  0.39904792  0.79858265    -0.36360
N82         N  0.78279358  0.41484036  0.77844660    -0.28540
C83         C  0.76522537  0.39412490  0.76181785    -0.03780
C84         C  0.77243066  0.36380553  0.77226845     0.04830
C85         C  0.79552287  0.36786575  0.79531039     0.02930
H86         H  0.74843463  0.40073014  0.74349529     0.08030
H87         H  0.80707024  0.34951457  0.80912751     0.06870
N88         N  0.14490798  0.51380952  0.77899143    -0.27520
N89         N  0.12835367  0.52920459  0.80064944    -0.35380
C90         C  0.13283054  0.56051074  0.79696547     0.00820
C91         C  0.15281222  0.56512926  0.77139476     0.06840
C92         C  0.16022701  0.53491723  0.76085170    -0.06250
H93         H  0.12255137  0.57846892  0.81208485     0.07510
H94         H  0.17559116  0.52870293  0.74133062     0.08710
Cu95       Cu  0.09974105  0.50698739  0.83359548     0.44170
Cu96       Cu  0.14661111  0.46481478  0.77547104     0.41990
Cu97       Cu  0.09940616  0.42115478  0.83186445     0.43880
N98         N  0.07068030  0.47937490  0.86170268    -0.34910
N99         N  0.07051818  0.44805976  0.86106377    -0.29160
C100        C  0.04866768  0.43745584  0.88157098    -0.05260
C101        C  0.03439291  0.46336729  0.89568382     0.06950
C102        C  0.04890782  0.48954687  0.88258674     0.00750
H103        H  0.04350015  0.41274430  0.88576816     0.08400
H104        H  0.04396826  0.51417168  0.88774812     0.07480
N105        N  0.12953615  0.39986307  0.79949106    -0.36360
N106        N  0.14645458  0.41576958  0.77858526    -0.28540
C107        C  0.16331186  0.39513790  0.76107930    -0.03780
C108        C  0.15700331  0.36480525  0.77174029     0.04830
C109        C  0.13523592  0.36870737  0.79591451     0.02930
H110        H  0.17930310  0.40175598  0.74226005     0.08030
H111        H  0.12410026  0.35028760  0.80970278     0.06870
N112        N  0.78187895  0.51246065  0.14638841    -0.27520
N113        N  0.80175863  0.52796693  0.12795382    -0.35380
C114        C  0.79815465  0.55926427  0.13279580     0.00820
C115        C  0.77505778  0.56371514  0.15561064     0.06840
C116        C  0.76504330  0.53350998  0.16341518    -0.06250
H117        H  0.81113798  0.57738730  0.12032454     0.07510
H118        H  0.74704269  0.52727274  0.18046502     0.08710
Cu119      Cu  0.83281328  0.50594684  0.09697942     0.44170
Cu120      Cu  0.77891503  0.46337731  0.14792594     0.41990
Cu121      Cu  0.83123119  0.42015367  0.09531927     0.43880
N122        N  0.86134679  0.47859232  0.06785682    -0.34910
N123        N  0.86077135  0.44728434  0.06721914    -0.29160
C124        C  0.88199658  0.43684488  0.04588996    -0.05260
C125        C  0.89654516  0.46285449  0.03248248     0.06950
C126        C  0.88291219  0.48892508  0.04692504     0.00750
H127        H  0.88642669  0.41217044  0.04052109     0.08400
H128        H  0.88821695  0.51357619  0.04254923     0.07480
N129        N  0.80047970  0.39851522  0.12670286    -0.36360
N130        N  0.78151115  0.41426071  0.14601449    -0.28540
C131        C  0.76522316  0.39341099  0.16362500    -0.03780
C132        C  0.77456836  0.36304341  0.15524028     0.04830
C133        C  0.79669158  0.36725642  0.13144311     0.02930
H134        H  0.74805628  0.39990456  0.18147933     0.08030
H135        H  0.80897166  0.34901146  0.11827430     0.06870
N136        N  0.14730287  0.41479447  0.14957258    -0.27520
N137        N  0.12925829  0.39872923  0.12962705    -0.35380
C138        C  0.13341448  0.36755430  0.13491156     0.00820
C139        C  0.15481023  0.36381127  0.15964802     0.06840
C140        C  0.16336051  0.39430117  0.16809783    -0.06250
H141        H  0.12150199  0.34897944  0.12190545     0.07510
H142        H  0.18029801  0.40115128  0.18611608     0.08710
Cu143      Cu  0.09940825  0.42001901  0.09659891     0.44170
Cu144      Cu  0.14932791  0.46382714  0.15089365     0.41990
Cu145      Cu  0.09878001  0.50620489  0.09607500     0.43880
N146        N  0.07053914  0.44721502  0.06724759    -0.34910
N147        N  0.07033653  0.47854872  0.06713357    -0.29160
C148        C  0.04872683  0.48884102  0.04595301    -0.05260
C149        C  0.03465617  0.46275135  0.03212077     0.06950
C150        C  0.04903647  0.43674531  0.04611339     0.00750
H151        H  0.04355398  0.51350033  0.04112780     0.08400
H152        H  0.04413783  0.41205777  0.04144131     0.07480
N153        N  0.12856685  0.52839352  0.12824089    -0.36360
N154        N  0.14701732  0.51281859  0.14833564    -0.28540
C155        C  0.16310687  0.53376101  0.16611305    -0.03780
C156        C  0.15409964  0.56404322  0.15705104     0.04830
C157        C  0.13242522  0.55968965  0.13270726     0.02930
H158        H  0.18033980  0.52733887  0.18408666     0.08030
H159        H  0.12009880  0.57793368  0.11942824     0.06870
O160        O  0.93114918  0.48944052  0.93024480    -0.73180
O161        O  0.99884283  0.48911232  0.99737746    -0.74160
O162        O  0.99849605  0.48942683  0.93023117    -0.62780
O163        O  0.93161087  0.48918397  0.99751192    -0.71190
O164        O  0.93170958  0.43657589  0.99725749    -0.70740
O165        O  0.99880301  0.43681739  0.93002717    -0.61990
O166        O  0.99904152  0.43650385  0.99726265    -0.74500
O167        O  0.93146082  0.43683518  0.92995435    -0.73280
Cu168      Cu  0.96500264  0.49112761  0.96383566     1.04560
Cu169      Cu  0.96524621  0.43483470  0.96360924     1.04330
C170        C  0.92060338  0.46318398  0.91958520     0.93020
C171        C  0.00966417  0.46277317  0.00780685     0.92160
C172        C  0.00934551  0.46318262  0.91971267     0.84310
C173        C  0.92111142  0.46285924  0.00795367     0.90580
N174        N  0.41488666  0.77954544  0.78128628    -0.27520
N175        N  0.39903401  0.79949767  0.79949022    -0.35380
C176        C  0.36781696  0.79476924  0.79538347     0.00820
C177        C  0.36374509  0.77045418  0.77373561     0.06840
C178        C  0.39416151  0.76168340  0.76498616    -0.06250
H179        H  0.34943228  0.80785697  0.80755280     0.07510
H180        H  0.40083444  0.74383452  0.74785762     0.08710
Cu181      Cu  0.42053296  0.83208061  0.82918505     0.44170
Cu182      Cu  0.46395184  0.77718615  0.77983541     0.41990
Cu183      Cu  0.50635852  0.83508676  0.82665193     0.43880
N184        N  0.44760852  0.86188472  0.85718931    -0.34910
N185        N  0.47888902  0.86297945  0.85624823    -0.29160
C186        C  0.48918350  0.88407011  0.87778881    -0.05260
C187        C  0.46311558  0.89685406  0.89291851     0.06950
C188        C  0.43714564  0.88233101  0.87928196     0.00750
H189        H  0.51382082  0.88951685  0.88221567     0.08400
H190        H  0.41249417  0.88610371  0.88514344     0.07480
N191        N  0.52844920  0.80170771  0.79825325    -0.36360
N192        N  0.51296208  0.77993640  0.78198875    -0.28540
C193        C  0.53399762  0.76114799  0.76720176    -0.03780
C194        C  0.56430733  0.77147062  0.77450557     0.04830
C195        C  0.55974199  0.79758420  0.79393816     0.02930
H196        H  0.52762762  0.74138423  0.75219981     0.08030
H197        H  0.57768229  0.81285937  0.80389220     0.06870
N198        N  0.41616856  0.14773479  0.77983603    -0.27520
N199        N  0.40020488  0.13029153  0.80026877    -0.35380
C200        C  0.36900963  0.13508529  0.79569347     0.00820
C201        C  0.36511427  0.15626283  0.77091736     0.06840
C202        C  0.39553717  0.16403645  0.76165213    -0.06250
H203        H  0.35052532  0.12356219  0.80903918     0.07510
H204        H  0.40223551  0.18040640  0.74315038     0.08710
Cu205      Cu  0.42139334  0.09993100  0.83269900     0.44170
Cu206      Cu  0.46523825  0.14836219  0.77730083     0.41990
Cu207      Cu  0.50725691  0.09750412  0.83225263     0.43880
N208        N  0.44823134  0.07030189  0.86143545    -0.34730
N209        N  0.47954531  0.06948630  0.86126024    -0.29160
C210        C  0.48967963  0.04759221  0.88216072    -0.05260
C211        C  0.46348526  0.03398579  0.89609377     0.06950
C212        C  0.43758983  0.04890576  0.88244834     0.00750
H213        H  0.51429704  0.04189178  0.88670395     0.08400
H214        H  0.41286434  0.04447100  0.88728976     0.07480
N215        N  0.52963646  0.12667605  0.79992746    -0.36360
N216        N  0.51425174  0.14508741  0.77966340    -0.28540
C217        C  0.53539985  0.16086730  0.76199775    -0.03780
C218        C  0.56560125  0.15179092  0.77137695     0.04830
C219        C  0.56097823  0.13030485  0.79574823     0.02930
H220        H  0.52922585  0.17774523  0.74364128     0.08030
H221        H  0.57899717  0.11856145  0.80984747     0.06870
N222        N  0.51379234  0.77830723  0.14405439    -0.27520
N223        N  0.52910190  0.79908158  0.12646001    -0.35380
C224        C  0.56035221  0.79634420  0.13217115     0.00820
C225        C  0.56497606  0.77291128  0.15471551     0.06840
C226        C  0.53491421  0.76170091  0.16134577    -0.06250
H227        H  0.57832786  0.81069797  0.12107213     0.07510
H228        H  0.52874337  0.74283795  0.17749278     0.08710
Cu229      Cu  0.50684085  0.83045261  0.09585742     0.44170
Cu230      Cu  0.46482046  0.77451997  0.14504273     0.41990
Cu231      Cu  0.42104993  0.83021505  0.09612936     0.43880
N232        N  0.47922294  0.85912229  0.06699123    -0.34910
N233        N  0.44790289  0.85911016  0.06703771    -0.29160
C234        C  0.43731716  0.88031784  0.04561162    -0.05260
C235        C  0.46325588  0.89424911  0.03146167     0.06950
C236        C  0.48941945  0.88029210  0.04556254     0.00750
H237        H  0.41259263  0.88523113  0.04075431     0.08400
H238        H  0.51405119  0.88517068  0.04068357     0.07480
N239        N  0.39984402  0.79864770  0.12709153    -0.36360
N240        N  0.41578060  0.77808984  0.14470115    -0.28540
C241        C  0.39520514  0.76129651  0.16214778    -0.03780
C242        C  0.36482661  0.77206027  0.15551549     0.04830
C243        C  0.36872499  0.79550510  0.13290227     0.02930
H244        H  0.40193656  0.74249073  0.17828458     0.08030
H245        H  0.35028742  0.80951691  0.12170526     0.06870
N246        N  0.41566997  0.14968503  0.14382576    -0.27520
N247        N  0.39986353  0.13044556  0.12484717    -0.35380
C248        C  0.36862641  0.13548584  0.12853700     0.00820
C249        C  0.36451524  0.15928217  0.15074195     0.06840
C250        C  0.39488233  0.16748363  0.16013340    -0.06250
H251        H  0.35031737  0.12221474  0.11650709     0.07510
H252        H  0.40140219  0.18502132  0.17764919     0.08710
Cu253      Cu  0.42140267  0.09771918  0.09541159     0.44170
Cu254      Cu  0.46473245  0.15049971  0.14706916     0.41990
Cu255      Cu  0.50716918  0.09355472  0.09896017     0.43880
N256        N  0.44837363  0.06719961  0.06815552    -0.34910
N257        N  0.47964412  0.06567695  0.06941140    -0.29160
C258        C  0.48982914  0.04397249  0.04842839    -0.05260
C259        C  0.46368565  0.03124688  0.03336377     0.06950
C260        C  0.43780093  0.04645202  0.04642165     0.00750
H261        H  0.51443630  0.03805189  0.04435035     0.08400
H262        H  0.41312856  0.04292693  0.04041797     0.07480
N263        N  0.52925291  0.12589181  0.12851135    -0.36360
N264        N  0.51376238  0.14696031  0.14575090    -0.28540
C265        C  0.53481942  0.16504751  0.16133060    -0.03780
C266        C  0.56508386  0.15510822  0.15334443     0.04830
C267        C  0.56056484  0.12990812  0.13278634     0.02930
H268        H  0.52853498  0.18429976  0.17705598     0.08030
H269        H  0.57860483  0.11536607  0.12184073     0.06870
O270        O  0.48959296  0.99788342  0.93061103    -0.73180
O271        O  0.48947913  0.92936067  0.99645315    -0.74160
O272        O  0.48942466  0.93083697  0.92912722    -0.62780
O273        O  0.48973447  0.99640010  0.99780597    -0.71190
O274        O  0.43711783  0.99701339  0.99752960    -0.70740
O275        O  0.43681122  0.93099999  0.92909922    -0.61990
O276        O  0.43686883  0.92983348  0.99647832    -0.74500
O277        O  0.43697935  0.99821982  0.93030648    -0.73280
Cu278      Cu  0.49139085  0.96358594  0.96350135     1.04560
Cu279      Cu  0.43508659  0.96400939  0.96334541     1.04330
C280        C  0.46332404  0.00885555  0.92011936     0.93020
C281        C  0.46317728  0.91892883  0.00695335     0.92160
C282        C  0.46310037  0.92065308  0.91824689     0.84310
C283        C  0.46349495  0.00707712  0.00842040     0.90580
C284        C  0.20594990  0.20195506  0.24625188     0.02900
C285        C  0.19389371  0.23105656  0.23474151    -0.13250
C286        C  0.20751506  0.24633907  0.20855359     0.00400
C287        C  0.23519281  0.23373853  0.19532858    -0.11780
C288        C  0.24757851  0.20483509  0.20606047     0.02890
C289        C  0.23192188  0.18824086  0.23027776    -0.11200
H290        H  0.17372377  0.24206324  0.24612542     0.08480
H291        H  0.24722841  0.24651734  0.17665544     0.06010
H292        H  0.24040083  0.16487624  0.23664066     0.05860
N293        N  0.78099188  0.78033326  0.41541714    -0.27520
N294        N  0.79975103  0.79958101  0.39951566    -0.35380
C295        C  0.79472055  0.79559760  0.36826445     0.00820
C296        C  0.77130623  0.77305976  0.36421784     0.06840
C297        C  0.76343911  0.76366636  0.39466825    -0.06250
H298        H  0.80747816  0.80798878  0.34990828     0.07510
H299        H  0.74604881  0.74616972  0.40128410     0.08710
Cu300      Cu  0.83105437  0.83079585  0.42079597     0.44170
Cu301      Cu  0.78007005  0.77757578  0.46457350     0.41990
Cu302      Cu  0.83124461  0.83170748  0.50663289     0.43880
N303        N  0.85951565  0.86028872  0.44781750    -0.34910
N304        N  0.85947062  0.86054412  0.47917706    -0.29160
C305        C  0.88057490  0.88191649  0.48957583    -0.05260
C306        C  0.89453789  0.89578293  0.46350552     0.06950
C307        C  0.88067021  0.88157952  0.43739417     0.00750
H308        H  0.88547579  0.88684075  0.51429508     0.08400
H309        H  0.88567875  0.88621492  0.41268187     0.07480
N310        N  0.80183856  0.79984619  0.52902028    -0.36360
N311        N  0.78333237  0.77982948  0.51367257    -0.28540
C312        C  0.76735363  0.76244956  0.53492698    -0.03780
C313        C  0.77638334  0.77181179  0.56514471     0.04830
C314        C  0.79806470  0.79584111  0.56041728     0.02930
H315        H  0.75032265  0.74437447  0.52881636     0.08030
H316        H  0.80978114  0.80989174  0.57837148     0.06870
N317        N  0.15069141  0.78283510  0.51123099    -0.27520
N318        N  0.12868342  0.79835435  0.52719184    -0.35380
C319        C  0.13199779  0.79183741  0.55824619     0.00820
C320        C  0.15721776  0.77102896  0.56208767     0.06840
C321        C  0.16879897  0.76631308  0.53172044    -0.06250
H322        H  0.11689248  0.80129949  0.57664704     0.07510
H323        H  0.18893818  0.75202366  0.52484999     0.08710
Cu324      Cu  0.09544264  0.82794334  0.50606735     0.44170
Cu325      Cu  0.15386947  0.78298437  0.46220890     0.41990
Cu326      Cu  0.09717550  0.83155107  0.42006111     0.43880
N327        N  0.06657722  0.85744351  0.47916454    -0.34910
N328        N  0.06729275  0.85871429  0.44783181    -0.29160
C329        C  0.04620636  0.88043967  0.43768807    -0.05260
C330        C  0.03161911  0.89351290  0.46389499     0.06950
C331        C  0.04504423  0.87842771  0.48980929     0.00750
H332        H  0.04204119  0.88644433  0.41306251     0.08400
H333        H  0.03975190  0.88252959  0.51456113     0.07480
N334        N  0.12882907  0.80147081  0.39777781    -0.36360
N335        N  0.14947246  0.78356764  0.41324545    -0.28540
C336        C  0.16588675  0.76618917  0.39222342    -0.03780
C337        C  0.15494759  0.77331972  0.36201048     0.04830
C338        C  0.13169343  0.79613003  0.36648100     0.02930
H339        H  0.18424827  0.74933439  0.39852583     0.08030
H340        H  0.11802502  0.80825758  0.34839165     0.06870
N341        N  0.78117181  0.14772832  0.51313717    -0.27520
N342        N  0.80084875  0.12908275  0.52901822    -0.35380
C343        C  0.79716772  0.13421586  0.56027212     0.00820
C344        C  0.77430338  0.15749912  0.56427070     0.06840
C345        C  0.76447484  0.16523100  0.53385433    -0.06250
H346        H  0.80995939  0.12161473  0.57868009     0.07510
H347        H  0.74663878  0.18252271  0.52723170     0.08710
Cu348      Cu  0.83192540  0.09769705  0.50748682     0.44170
Cu349      Cu  0.77794839  0.14879799  0.46406766     0.41990
Cu350      Cu  0.83181964  0.09768632  0.42146106     0.43880
N351        N  0.86089560  0.06888603  0.48022114    -0.34910
N352        N  0.86084672  0.06895586  0.44885333    -0.29160
C353        C  0.88202777  0.04753091  0.43843865    -0.05260
C354        C  0.89605415  0.03333925  0.46451181     0.06950
C355        C  0.88215482  0.04741152  0.49061640     0.00750
H356        H  0.88673325  0.04258542  0.41371982     0.08400
H357        H  0.88700699  0.04235343  0.51533158     0.07480
N358        N  0.79960058  0.12759590  0.39943713    -0.36360
N359        N  0.77971732  0.14611396  0.41500980    -0.28540
C360        C  0.76189787  0.16228207  0.39398958    -0.03780
C361        C  0.77077631  0.15330718  0.36369201     0.04830
C362        C  0.79502683  0.13152480  0.36810282     0.02930
H363        H  0.74371461  0.17925180  0.40031668     0.08030
H364        H  0.80869815  0.11969837  0.34995426     0.06870
N365        N  0.14399210  0.14917928  0.51255133    -0.27520
N366        N  0.12759909  0.12768545  0.52820269    -0.35380
C367        C  0.13370946  0.13048450  0.55938893     0.00820
C368        C  0.15520173  0.15477182  0.56372900     0.06840
C369        C  0.16080375  0.16639669  0.53347622    -0.06250
H370        H  0.12352745  0.11561465  0.57754487     0.07510
H371        H  0.17585918  0.18598167  0.52704127     0.08710
Cu372      Cu  0.09754919  0.09544582  0.50683420     0.44170
Cu373      Cu  0.14376559  0.15328889  0.46334231     0.41990
Cu374      Cu  0.09201305  0.09944313  0.42142437     0.43880
N375        N  0.06835016  0.06659164  0.48005810    -0.34910
N376        N  0.06651912  0.06800308  0.44877986    -0.29160
C377        C  0.04530384  0.04667286  0.43852347    -0.05260
C378        C  0.03311300  0.03123523  0.46462636     0.06950
C379        C  0.04820894  0.04439417  0.49059176     0.00750
H380        H  0.03890019  0.04304515  0.41391610     0.08400
H381        H  0.04462470  0.03853175  0.51529852     0.07480
N382        N  0.12052696  0.13208959  0.39892951    -0.36360
N383        N  0.14010169  0.15123559  0.41412565    -0.28540
C384        C  0.15693313  0.16760817  0.39267370    -0.03780
C385        C  0.14703302  0.15868095  0.36264775     0.04830
C386        C  0.12402850  0.13606154  0.36748159     0.02930
H387        H  0.17536989  0.18434831  0.39846202     0.08030
H388        H  0.11169459  0.12254738  0.34950569     0.06870
O389        O  0.92986466  0.93037858  0.49012656    -0.73180
O390        O  0.99809882  0.99616057  0.49092249    -0.74160
O391        O  0.93089714  0.99753918  0.49072042    -0.62780
O392        O  0.99696263  0.92897853  0.49046936    -0.71190
O393        O  0.99702768  0.92956292  0.43778152    -0.70740
O394        O  0.93060207  0.99772300  0.43803053    -0.61990
O395        O  0.99765776  0.99668848  0.43823241    -0.74500
O396        O  0.92991582  0.93057481  0.43743449    -0.73280
Cu397      Cu  0.96395479  0.96325159  0.49241531     1.04560
Cu398      Cu  0.96380745  0.96365147  0.43602766     1.04330
C399        C  0.91923253  0.92006889  0.46367969     0.93020
C400        C  0.00852729  0.00684113  0.46462923     0.92160
C401        C  0.92032647  0.00838161  0.46442481     0.84310
C402        C  0.00739518  0.91850368  0.46407093     0.90580
C403        C  0.19105606  0.18696350  0.27495983    -0.06350
C404        C  0.15795434  0.18988666  0.27889474    -0.17480
C405        C  0.14305087  0.18152896  0.30729151     0.10840
C406        C  0.16107907  0.16819703  0.33213663    -0.06280
C407        C  0.19353726  0.16341698  0.32791628    -0.17510
C408        C  0.20881692  0.17254402  0.29992527     0.10870
S409        S  0.10142832  0.19048763  0.31111282    -0.32480
S410        S  0.25119004  0.16739833  0.29874819    -0.32490
H411        H  0.25326202  0.14371543  0.32217976     0.28880
H412        H  0.10258077  0.19792251  0.34361486     0.28880
H413        H  0.14349044  0.19988410  0.26006600     0.19470
H414        H  0.20718014  0.15304636  0.34716249     0.19480
C415        C  0.33438195  0.17146784  0.16395323    -0.06350
C416        C  0.33285605  0.17710932  0.19668785    -0.17480
C417        C  0.30520387  0.18848631  0.21084492     0.10840
C418        C  0.27753930  0.19276671  0.19230318    -0.06280
C419        C  0.27905965  0.18741869  0.15947474    -0.17510
C420        C  0.30727470  0.17761202  0.14503086     0.10870
S421        S  0.30779023  0.19910639  0.25213686    -0.32480
S422        S  0.30762795  0.17572988  0.10232324    -0.32490
H423        H  0.33871735  0.18714297  0.09920066     0.28880
H424        H  0.28588480  0.22424834  0.25072448     0.28880
H425        H  0.35361627  0.17313544  0.21140377     0.19470
H426        H  0.25829696  0.19180087  0.14485759     0.19480
C427        C  0.16700742  0.33359804  0.17291705    -0.06350
C428        C  0.17455738  0.30896659  0.15189112    -0.17480
C429        C  0.18695310  0.28013641  0.16280296     0.10840
C430        C  0.19320201  0.27594177  0.19559732    -0.06280
C431        C  0.18531257  0.30051510  0.21663883    -0.17510
C432        C  0.17165755  0.32881510  0.20581729     0.10870
S433        S  0.19294998  0.24940856  0.13366118    -0.32480
S434        S  0.15901442  0.35689827  0.23542573    -0.32490
H435        H  0.13149654  0.36638435  0.21898035     0.28880
H436        H  0.18448705  0.22428353  0.15378986     0.28880
H437        H  0.17063360  0.31212697  0.12666243     0.19470
H438        H  0.18947659  0.29752658  0.24184443     0.19480
C439        C  0.65192200  0.19278548  0.19172091    -0.06350
C440        C  0.65070440  0.18313817  0.15990990    -0.17480
C441        C  0.62270458  0.17149101  0.14645202     0.10840
C442        C  0.59534903  0.16819316  0.16550022    -0.06280
C443        C  0.59665115  0.17802007  0.19729955    -0.17510
C444        C  0.62426126  0.19077805  0.21038370     0.10870
S445        S  0.62316531  0.16338443  0.10449522    -0.32480
S446        S  0.62212407  0.20526113  0.25059727    -0.32490
H447        H  0.64267698  0.23097441  0.24599277     0.28880
H448        H  0.59261800  0.17562391  0.09879512     0.28880
H449        H  0.67163140  0.18523409  0.14527182     0.19470
H450        H  0.57584810  0.17604533  0.21211268     0.19480
C451        C  0.73567571  0.27613704  0.19188989    -0.06350
C452        C  0.76813817  0.27798587  0.18511322    -0.17480
C453        C  0.78169721  0.30608922  0.17405055     0.10840
C454        C  0.76221108  0.33286955  0.16820957    -0.06280
C455        C  0.72977426  0.33100343  0.17513638    -0.17510
C456        C  0.71647651  0.30335720  0.18747060     0.10870
S457        S  0.82417852  0.30663204  0.17008648    -0.32480
S458        S  0.67525883  0.30505439  0.19853937    -0.32490
H459        H  0.67856542  0.28570401  0.22553798     0.28880
H460        H  0.82765696  0.33768851  0.18163770     0.28880
H461        H  0.78321155  0.25749674  0.18911666     0.19470
H462        H  0.71460832  0.35143687  0.17126096     0.19480
C463        C  0.73494761  0.19279213  0.27629848    -0.06350
C464        C  0.74198480  0.16031657  0.27819356    -0.17480
C465        C  0.75276771  0.14657335  0.30647066     0.10840
C466        C  0.75805123  0.16588882  0.33338672    -0.06280
C467        C  0.75090928  0.19834747  0.33148906    -0.17510
C468        C  0.73886483  0.21184083  0.30362337     0.10870
S469        S  0.75715413  0.10408647  0.30701587    -0.32480
S470        S  0.72754529  0.25307925  0.30515156    -0.32490
H471        H  0.70093634  0.24999817  0.28520917     0.28880
H472        H  0.74542238  0.10037335  0.33797442     0.28880
H473        H  0.73839245  0.14537692  0.25759461     0.19470
H474        H  0.75440891  0.21336019  0.35204025     0.19480
C475        C  0.73591315  0.65127282  0.19116908    -0.06350
C476        C  0.76878451  0.64813116  0.18703293    -0.17480
C477        C  0.78230335  0.61974163  0.17638789     0.10840
C478        C  0.76252738  0.59404917  0.16814821    -0.06280
C479        C  0.72968729  0.59719382  0.17213733    -0.17510
C480        C  0.71625910  0.62507393  0.18409408     0.10870
S481        S  0.82493645  0.61728054  0.17608169    -0.32480
S482        S  0.67418179  0.62474502  0.19137933    -0.32490
H483        H  0.67580466  0.64254213  0.21953941     0.28880
H484        H  0.82634738  0.58569964  0.18667800     0.28880
H485        H  0.78418473  0.66776257  0.19288092     0.19470
H486        H  0.71431065  0.57753377  0.16633026     0.19480
C487        C  0.59563694  0.76192561  0.16807593    -0.06350
C488        C  0.62189697  0.75949324  0.14781180    -0.17480
C489        C  0.65120504  0.74820450  0.15880772     0.10840
C490        C  0.65426251  0.73807221  0.19063431    -0.06280
C491        C  0.62818176  0.74104291  0.21097511    -0.17510
C492        C  0.59933165  0.75349863  0.20035555     0.10870
S493        S  0.68383493  0.74826394  0.13132745    -0.32480
S494        S  0.56905832  0.75967442  0.22977012    -0.32490
H495        H  0.55818715  0.78847519  0.21681921     0.28880
H496        H  0.70744791  0.75397654  0.15422071     0.28880
H497        H  0.61959768  0.76640244  0.12314514     0.19470
H498        H  0.63039013  0.73382473  0.23557062     0.19480
C499        C  0.75831678  0.76047376  0.33403852    -0.06350
C500        C  0.75199035  0.72791137  0.33191224    -0.17480
C501        C  0.73993879  0.71446466  0.30404568     0.10840
C502        C  0.73526833  0.73368473  0.27688916    -0.06280
C503        C  0.74153647  0.76625781  0.27906808    -0.17510
C504        C  0.75211717  0.77993310  0.30737786     0.10870
S505        S  0.72953021  0.67308815  0.30545582    -0.32480
S506        S  0.75491482  0.82251664  0.30832631    -0.32490
H507        H  0.74335258  0.82553057  0.33943713     0.28880
H508        H  0.70265221  0.67600608  0.28582158     0.28880
H509        H  0.75612931  0.71277360  0.35229425     0.19470
H510        H  0.73743419  0.78138235  0.25865757     0.19480
C511        C  0.19157492  0.65268492  0.19110362    -0.06350
C512        C  0.18477069  0.62813217  0.21251289    -0.17480
C513        C  0.17129683  0.59968946  0.20234658     0.10840
C514        C  0.16593864  0.59456891  0.16963193    -0.06280
C515        C  0.17243943  0.61913567  0.14819517    -0.17510
C516        C  0.18452078  0.64821589  0.15855399     0.10870
S517        S  0.15967935  0.57194784  0.23261975    -0.32480
S518        S  0.18892863  0.67888820  0.12917015    -0.32490
H519        H  0.18074406  0.70395892  0.14955463     0.28880
H520        H  0.13184077  0.56230578  0.21698285     0.28880
H521        H  0.18955378  0.63129102  0.23759167     0.19470
H522        H  0.16790534  0.61573981  0.12310302     0.19480
C523        C  0.33445332  0.76044416  0.16857137    -0.06350
C524        C  0.30847306  0.75724900  0.14788865    -0.17480
C525        C  0.27928134  0.74590670  0.15856572     0.10840
C526        C  0.27599329  0.73655093  0.19055537    -0.06280
C527        C  0.30183070  0.74004191  0.21130931    -0.17510
C528        C  0.33065821  0.75240140  0.20091578     0.10870
S529        S  0.24701233  0.74506295  0.13044552    -0.32480
S530        S  0.36074073  0.75900273  0.23061920    -0.32490
H531        H  0.37129881  0.78771007  0.21752044     0.28880
H532        H  0.22307058  0.75161200  0.15261545     0.28880
H533        H  0.31086814  0.76372852  0.12314417     0.19470
H534        H  0.29937478  0.73345018  0.23603222     0.19480
C535        C  0.19322611  0.73643681  0.27476005    -0.06350
C536        C  0.16058088  0.74242025  0.27719997    -0.17480
C537        C  0.14721034  0.75344889  0.30546894     0.10840
C538        C  0.16704800  0.76026856  0.33172511    -0.06280
C539        C  0.19967068  0.75425427  0.32924311    -0.17510
C540        C  0.21281581  0.74179005  0.30153436     0.10870
S541        S  0.10461728  0.75600232  0.30693638    -0.32480
S542        S  0.25439646  0.73173203  0.30271856    -0.32490
H543        H  0.25159554  0.70430380  0.28399910     0.28880
H544        H  0.10233847  0.74470257  0.33823956     0.28880
H545        H  0.14522027  0.73776748  0.25708006     0.19470
H546        H  0.21513772  0.75890247  0.34927130     0.19480
C547        C  0.16525401  0.59538614  0.75872498    -0.06350
C548        C  0.19691838  0.59616420  0.74864446    -0.17480
C549        C  0.21025693  0.62376653  0.73629668     0.10840
C550        C  0.19192113  0.65178875  0.73471386    -0.06280
C551        C  0.16028759  0.65114982  0.74466250    -0.17510
C552        C  0.14662500  0.62327819  0.75615609     0.10870
S553        S  0.25045442  0.62134400  0.72207068    -0.32480
S554        S  0.10495571  0.62468341  0.76515664    -0.32490
H555        H  0.09839957  0.59455372  0.75256454     0.28880
H556        H  0.24634466  0.64283738  0.69687857     0.28880
H557        H  0.21145447  0.57499218  0.75021014     0.19470
H558        H  0.14595489  0.67246536  0.74293950     0.19480
C559        C  0.19260539  0.73517581  0.65126849    -0.06350
C560        C  0.19360054  0.71594352  0.62420876    -0.17480
C561        C  0.18161365  0.72650845  0.59509068     0.10840
C562        C  0.16925686  0.75767091  0.59243594    -0.06280
C563        C  0.16817572  0.77681376  0.61971833    -0.17510
C564        C  0.17923475  0.76578993  0.64907412     0.10870
S565        S  0.18106341  0.69813533  0.56317257    -0.32480
S566        S  0.17486852  0.79160887  0.68288102    -0.32490
H567        H  0.17091398  0.76744814  0.70546125     0.28880
H568        H  0.15090056  0.70714052  0.55198257     0.28880
H569        H  0.20335187  0.69219809  0.62594857     0.19470
H570        H  0.15854947  0.80060634  0.61825053     0.19480
C571        C  0.27479475  0.73575106  0.73741316    -0.06350
C572        C  0.29990075  0.71460342  0.74335413    -0.17480
C573        C  0.32861795  0.72494870  0.75618272     0.10840
C574        C  0.33325682  0.75760191  0.76197283    -0.06280
C575        C  0.30805326  0.77875138  0.75631795    -0.17510
C576        C  0.27882954  0.76818966  0.74468892     0.10870
S577        S  0.35737580  0.69488835  0.76633311    -0.32480
S578        S  0.24749750  0.79714873  0.74084701    -0.32490
H579        H  0.22276395  0.77621853  0.74817854     0.28880
H580        H  0.36726788  0.70967324  0.79456609     0.28880
H581        H  0.29699959  0.68961948  0.73826910     0.19470
H582        H  0.31107152  0.80377119  0.76109985     0.19480
C583        C  0.19089866  0.18869536  0.65342226    -0.06350
C584        C  0.21078725  0.18776485  0.62687406    -0.17480
C585        C  0.20024659  0.17602125  0.59773153     0.10840
C586        C  0.16849362  0.16590703  0.59439492    -0.06280
C587        C  0.14872837  0.16635618  0.62120021    -0.17510
C588        C  0.15966707  0.17721824  0.65066878     0.10870
S589        S  0.22920244  0.17306984  0.56657309    -0.32480
S590        S  0.13291840  0.17516908  0.68384718    -0.32490
H591        H  0.15645042  0.17100297  0.70719990     0.28880
H592        H  0.21833840  0.14369470  0.55527319     0.28880
H593        H  0.23494488  0.19613894  0.62894124     0.19470
H594        H  0.12448744  0.15827017  0.61920712     0.19480
C595        C  0.27660298  0.19297372  0.73491554    -0.06350
C596        C  0.30065750  0.18379496  0.71384570    -0.17480
C597        C  0.32921238  0.17085147  0.72478609     0.10840
C598        C  0.33479343  0.16822285  0.75775595    -0.06280
C599        C  0.31078108  0.17725257  0.77887947    -0.17510
C600        C  0.28168216  0.18905076  0.76791288     0.10870
S601        S  0.35654808  0.15640518  0.69534771    -0.32480
S602        S  0.25179219  0.19731943  0.79727140    -0.32490
H603        H  0.22602992  0.18788442  0.77830309     0.28880
H604        H  0.36619157  0.12971408  0.71295844     0.28880
H605        H  0.29700899  0.18630344  0.68850083     0.19470
H606        H  0.31463174  0.17488669  0.80421109     0.19480
C607        C  0.19264458  0.27749320  0.73237946    -0.06350
C608        C  0.19085350  0.28140545  0.76542881    -0.17480
C609        C  0.18038447  0.30981872  0.77889637     0.10840
C610        C  0.16996485  0.33476253  0.75903153    -0.06280
C611        C  0.17179936  0.33101812  0.72601582    -0.17510
C612        C  0.18331194  0.30289847  0.71243085     0.10870
S613        S  0.18310479  0.31336828  0.82143625    -0.32480
S614        S  0.18790507  0.30086055  0.66984317    -0.32490
H615        H  0.17248817  0.32957753  0.66256126     0.28880
H616        H  0.19235171  0.34534212  0.82121427     0.28880
H617        H  0.19839017  0.26233036  0.78098671     0.19470
H618        H  0.16429706  0.35035331  0.71082487     0.19480
C619        C  0.59594179  0.16433469  0.75914487    -0.06350
C620        C  0.59759470  0.19674112  0.75191163    -0.17480
C621        C  0.62529298  0.21023835  0.74004525     0.10840
C622        C  0.65271475  0.19125806  0.73627270    -0.06280
C623        C  0.65115668  0.15884747  0.74349314    -0.17510
C624        C  0.62305259  0.14509910  0.75428403     0.10870
S625        S  0.62347081  0.25146162  0.72881134    -0.32480
S626        S  0.62298289  0.10270384  0.75929838    -0.32490
H627        H  0.59216017  0.09855795  0.74723970     0.28880
H628        H  0.64309009  0.24832826  0.70209655     0.28880
H629        H  0.57695674  0.21173087  0.75518889     0.19470
H630        H  0.67186623  0.14398298  0.74005028     0.19480
C631        C  0.76169336  0.17049647  0.59434156    -0.06350
C632        C  0.72893750  0.17579851  0.59666360    -0.17480
C633        C  0.71540150  0.18799568  0.62434125     0.10840
C634        C  0.73481904  0.19399940  0.65111323    -0.06280
C635        C  0.76760910  0.18881144  0.64873864    -0.17510
C636        C  0.78128434  0.17787780  0.62059304     0.10870
S637        S  0.67353683  0.19675456  0.62316838    -0.32480
S638        S  0.82391578  0.17594374  0.61926011    -0.32490
H639        H  0.82617496  0.18668040  0.58775840     0.28880
H640        H  0.67538998  0.22398998  0.64228579     0.28880
H641        H  0.71369548  0.17070319  0.57656810     0.19470
H642        H  0.78282194  0.19386927  0.66887488     0.19480
C643        C  0.75900519  0.33338626  0.76110308    -0.06350
C644        C  0.77963229  0.30758316  0.75660547    -0.17480
C645        C  0.76856969  0.27840847  0.74542900     0.10840
C646        C  0.73613140  0.27492367  0.73779968    -0.06280
C647        C  0.71544469  0.30055430  0.74271629    -0.17510
C648        C  0.72633281  0.32941093  0.75472750     0.10870
S649        S  0.79692174  0.24647674  0.74220349    -0.32480
S650        S  0.69695542  0.35940974  0.76284497    -0.32490
H651        H  0.71149405  0.37009618  0.79093046     0.28880
H652        H  0.77545146  0.22211048  0.74920153     0.28880
H653        H  0.80465286  0.31016204  0.76178432     0.19470
H654        H  0.69046789  0.29801255  0.73726822     0.19480
C655        C  0.59452106  0.75832517  0.76206960    -0.06350
C656        C  0.59447783  0.74554237  0.73129168    -0.17480
C657        C  0.62192516  0.73279622  0.71789135     0.10840
C658        C  0.65074968  0.73402565  0.73486479    -0.06280
C659        C  0.65097736  0.74646423  0.76568179    -0.17510
C660        C  0.62319045  0.75795002  0.77972254     0.10870
S661        S  0.61819867  0.71418458  0.67961763    -0.32480
S662        S  0.62583501  0.76956493  0.82076313    -0.32490
H663        H  0.59649688  0.75640602  0.82919978     0.28880
H664        H  0.64126288  0.69065132  0.68506155     0.28880
H665        H  0.57278139  0.74519121  0.71748999     0.19470
H666        H  0.67290560  0.74657641  0.77916509     0.19480
C667        C  0.75887692  0.59414230  0.76056824    -0.06350
C668        C  0.75587968  0.59757716  0.72759225    -0.17480
C669        C  0.74362252  0.62532944  0.71408304     0.10840
C670        C  0.73533056  0.65118130  0.73386826    -0.06280
C671        C  0.73850712  0.64772367  0.76689568    -0.17510
C672        C  0.74931961  0.61938076  0.78042109     0.10870
S673        S  0.73750938  0.62516126  0.67169472    -0.32480
S674        S  0.74810709  0.61632203  0.82304830    -0.32490
H675        H  0.73835748  0.58450192  0.82342880     0.28880
H676        H  0.70895503  0.64244407  0.67250208     0.28880
H677        H  0.76267000  0.57820813  0.71214741     0.19470
H678        H  0.73177321  0.66706142  0.78240623     0.19480
C679        C  0.73568650  0.73721310  0.65211290    -0.06350
C680        C  0.76802800  0.74479499  0.65110144    -0.17480
C681        C  0.78221655  0.75541935  0.62308190     0.10840
C682        C  0.76343659  0.76003742  0.59554840    -0.06280
C683        C  0.73107890  0.75280895  0.59673960    -0.17510
C684        C  0.71725375  0.74081165  0.62423459     0.10870
S685        S  0.82460514  0.76024851  0.62362244    -0.32480
S686        S  0.67658249  0.72850236  0.62122683    -0.32490
H687        H  0.68087094  0.70093010  0.63951985     0.28880
H688        H  0.82925842  0.74775305  0.59305362     0.28880
H689        H  0.78257883  0.74149262  0.67210750     0.19470
H690        H  0.71642631  0.75589056  0.57577921     0.19480
loop_ 
_geom_bond_atom_site_label_1 
_geom_bond_atom_site_label_2 
_geom_bond_distance 
_geom_bond_site_symmetry_2 
_ccdc_geom_bond_type 
C1            C2   1.405       .  A
C1            C6   1.405       .  A
C1          C679   1.485       .  S
C2            C3   1.405       .  A
C2            H7   1.083       .  S
C3            C4   1.404       .  A
C3          C670   1.488       .  S
C4            C5   1.400       .  A
C4            H8   1.084       .  S
C5            C6   1.403       .  A
C5          C658   1.478       .  S
C6            H9   1.084       .  S
C10          C11   1.404       .  A
C10          C15   1.405       .  A
C10         C634   1.485       .  S
C11          C12   1.403       .  A
C11          H16   1.084       .  S
C12          C13   1.403       .  A
C12         C622   1.483       .  S
C13          C14   1.403       .  A
C13          H17   1.084       .  S
C14          C15   1.403       .  A
C14         C646   1.482       .  S
C15          H18   1.084       .  S
C19          C20   1.403       .  A
C19          C24   1.401       .  A
C19         C583   1.480       .  S
C20          C21   1.406       .  A
C20          H25   1.083       .  S
C21          C22   1.407       .  A
C21         C607   1.489       .  S
C22          C23   1.404       .  A
C22          H26   1.083       .  S
C23          C24   1.403       .  A
C23         C595   1.486       .  S
C24          H27   1.084       .  S
C28          C29   1.405       .  A
C28          C33   1.405       .  A
C28         C571   1.484       .  S
C29          C30   1.403       .  A
C29          H34   1.084       .  S
C30          C31   1.402       .  A
C30         C559   1.477       .  S
C31          C32   1.400       .  A
C31          H35   1.084       .  S
C32          C33   1.402       .  A
C32         C550   1.478       .  S
C33          H36   1.084       .  S
C37          C38   1.403       .  A
C37          C42   1.406       .  A
C37         C526   1.483       .  S
C38          C39   1.402       .  A
C38          H43   1.084       .  S
C39          C40   1.402       .  A
C39         C535   1.484       .  S
C40          C41   1.405       .  A
C40          H44   1.084       .  S
C41          C42   1.407       .  A
C41         C511   1.488       .  S
C42          H45   1.083       .  S
C46          C47   1.402       .  A
C46          C51   1.404       .  A
C46         C502   1.486       .  S
C47          C48   1.402       .  A
C47          H52   1.084       .  S
C48          C49   1.404       .  A
C48         C490   1.483       .  S
C49          C50   1.406       .  A
C49          H53   1.083       .  S
C50          C51   1.406       .  A
C50         C475   1.487       .  S
C51          H54   1.083       .  S
C55          C56   1.404       .  A
C55          C60   1.403       .  A
C55         C463   1.483       .  S
C56          C57   1.404       .  A
C56          H61   1.084       .  S
C57          C58   1.404       .  A
C57         C451   1.484       .  S
C58          C59   1.403       .  A
C58          H62   1.084       .  S
C59          C60   1.402       .  A
C59         C439   1.481       .  S
C60          H63   1.084       .  S
N64          N65   1.322       .  A
N64          C68   1.344       .  A
N64         Cu72   2.074       .  S
N65          C66   1.345       .  A
N65         Cu71   2.072       .  S
C66          C67   1.385       .  A
C66          H69   1.081       .  S
C67          C68   1.384       .  A
C67         C667   1.480       .  S
C68          H70   1.082       .  S
Cu71         N74   2.072       .  S
Cu72         N82   2.074       .  S
Cu73         N75   2.074       .  S
Cu73         N81   2.074       .  S
N74          N75   1.323       .  A
N74          C78   1.345       .  A
N75          C76   1.345       .  A
C76          C77   1.383       .  A
C76          H79   1.082       .  S
C77          C78   1.382       .  A
C77         C170   1.468       .  S
C78          H80   1.082       .  S
N81          N82   1.322       .  A
N81          C85   1.345       .  A
N82          C83   1.345       .  A
C83          C84   1.386       .  A
C83          H86   1.082       .  S
C84          C85   1.385       .  A
C84         C643   1.482       .  S
C85          H87   1.082       .  S
N88          N89   1.321       .  A
N88          C92   1.344       .  A
N88         Cu96   2.075       .  S
N89          C90   1.345       .  A
N89         Cu95   2.072       .  S
C90          C91   1.386       .  A
C90          H93   1.081       .  S
C91          C92   1.386       .  A
C91         C547   1.484       .  S
C92          H94   1.082       .  S
Cu95         N98   2.072       .  S
Cu96        N106   2.075       .  S
Cu97         N99   2.072       .  S
Cu97        N105   2.072       .  S
N98          N99   1.322       .  A
N98         C102   1.345       .  A
N99         C100   1.345       .  A
C100        C101   1.382       .  A
C100        H103   1.081       .  S
C101        C102   1.382       .  A
C101        C172   1.468       .  S
C102        H104   1.082       .  S
N105        N106   1.322       .  A
N105        C109   1.345       .  A
N106        C107   1.345       .  A
C107        C108   1.384       .  A
C107        H110   1.081       .  S
C108        C109   1.385       .  A
C108        C610   1.480       .  S
C109        H111   1.081       .  S
N112        N113   1.322       .  A
N112        C116   1.345       .  A
N112       Cu120   2.078       .  S
N113        C114   1.345       .  A
N113       Cu119   2.072       .  S
C114        C115   1.385       .  A
C114        H117   1.081       .  S
C115        C116   1.385       .  A
C115        C478   1.482       .  S
C116        H118   1.082       .  S
Cu119       N122   2.072       .  S
Cu120       N130   2.078       .  S
Cu121       N123   2.073       .  S
Cu121       N129   2.073       .  S
N122        N123   1.322       .  A
N122        C126   1.345       .  A
N123        C124   1.345       .  A
C124        C125   1.382       .  A
C124        H127   1.082       .  S
C125        C126   1.382       .  A
C125        C173   1.468       .  S
C126        H128   1.082       .  S
N129        N130   1.322       .  A
N129        C133   1.345       .  A
N130        C131   1.345       .  A
C131        C132   1.386       .  A
C131        H134   1.082       .  S
C132        C133   1.386       .  A
C132        C454   1.484       .  S
C133        H135   1.081       .  S
N136        N137   1.322       .  A
N136        C140   1.345       .  A
N136       Cu144   2.073       .  S
N137        C138   1.345       .  A
N137       Cu143   2.076       .  S
C138        C139   1.385       .  A
C138        H141   1.082       .  S
C139        C140   1.385       .  A
C139        C427   1.482       .  S
C140        H142   1.081       .  S
Cu143       N146   2.076       .  S
Cu144       N154   2.073       .  S
Cu145       N147   2.073       .  S
Cu145       N153   2.073       .  S
N146        N147   1.323       .  A
N146        C150   1.346       .  A
N147        C148   1.345       .  A
C148        C149   1.382       .  A
C148        H151   1.082       .  S
C149        C150   1.383       .  A
C149        C171   1.468       .  S
C150        H152   1.082       .  S
N153        N154   1.321       .  A
N153        C157   1.345       .  A
N154        C155   1.344       .  A
C155        C156   1.385       .  A
C155        H158   1.082       .  S
C156        C157   1.385       .  A
C156        C514   1.482       .  S
C157        H159   1.082       .  S
O160       Cu168   2.009       .  S
O160        C170   1.278       .  A
O161       Cu168   2.007       .  S
O161        C171   1.277   1_656  A
O162       Cu168   2.007       .  S
O162        C172   1.277   1_655  A
O163       Cu168   2.007       .  S
O163        C173   1.277   1_556  A
O164       Cu169   2.010       .  S
O164        C173   1.278   1_556  A
O165       Cu169   2.009       .  S
O165        C172   1.278   1_655  A
O166       Cu169   2.009       .  S
O166        C171   1.277   1_656  A
O167       Cu169   2.009       .  S
O167        C170   1.277       .  A
Cu168      Cu169   2.377       .  S
N174        N175   1.321       .  A
N174        C178   1.345       .  A
N174       Cu182   2.075       .  S
N175        C176   1.344       .  A
N175       Cu181   2.070       .  S
C176        C177   1.385       .  A
C176        H179   1.082       .  S
C177        C178   1.386       .  A
C177        C574   1.483       .  S
C178        H180   1.081       .  S
Cu181       N184   2.070       .  S
Cu182       N192   2.075       .  S
Cu183       N185   2.071       .  S
Cu183       N191   2.071       .  S
N184        N185   1.322       .  A
N184        C188   1.345       .  A
N185        C186   1.344       .  A
C186        C187   1.382       .  A
C186        H189   1.082       .  S
C187        C188   1.382       .  A
C187        C282   1.466       .  S
C188        H190   1.082       .  S
N191        N192   1.321       .  A
N191        C195   1.345       .  A
N192        C193   1.343       .  A
C193        C194   1.387       .  A
C193        H196   1.081       .  S
C194        C195   1.387       .  A
C194        C655   1.486       .  S
C195        H197   1.081       .  S
N198        N199   1.322       .  A
N198        C202   1.345       .  A
N198       Cu206   2.075       .  S
N199        C200   1.345       .  A
N199       Cu205   2.071       .  S
C200        C201   1.383       .  A
C200        H203   1.081       .  S
C201        C202   1.385       .  A
C201        C598   1.480       .  S
C202        H204   1.081       .  S
Cu205       N208   2.071       .  S
Cu206       N216   2.075       .  S
Cu207       N209   2.071       .  S
Cu207       N215   2.071       .  S
N208        N209   1.322       .  A
N208        C212   1.345       .  A
N209        C210   1.344       .  A
C210        C211   1.382       .  A
C210        H213   1.082       .  S
C211        C212   1.382       .  A
C211        C280   1.467       .  S
C212        H214   1.082       .  S
N215        N216   1.321       .  A
N215        C219   1.345       .  A
N216        C217   1.344       .  A
C217        C218   1.386       .  A
C217        H220   1.082       .  S
C218        C219   1.385       .  A
C218        C619   1.483       .  S
C219        H221   1.082       .  S
N222        N223   1.321       .  A
N222        C226   1.344       .  A
N222       Cu230   2.075       .  S
N223        C224   1.345       .  A
N223       Cu229   2.069       .  S
C224        C225   1.384       .  A
C224        H227   1.081       .  S
C225        C226   1.386       .  A
C225        C487   1.482       .  S
C226        H228   1.081       .  S
Cu229       N232   2.069       .  S
Cu230       N240   2.075       .  S
Cu231       N233   2.074       .  S
Cu231       N239   2.074       .  S
N232        N233   1.322       .  A
N232        C236   1.344       .  A
N233        C234   1.345       .  A
C234        C235   1.383       .  A
C234        H237   1.082       .  S
C235        C236   1.382       .  A
C235        C281   1.467       .  S
C236        H238   1.082       .  S
N239        N240   1.322       .  A
N239        C243   1.345       .  A
N240        C241   1.345       .  A
C241        C242   1.386       .  A
C241        H244   1.082       .  S
C242        C243   1.385       .  A
C242        C523   1.483       .  S
C243        H245   1.082       .  S
N246        N247   1.321       .  A
N246        C250   1.344       .  A
N246       Cu254   2.076       .  S
N247        C248   1.345       .  A
N247       Cu253   2.068       .  S
C248        C249   1.384       .  A
C248        H251   1.081       .  S
C249        C250   1.386       .  A
C249        C415   1.481       .  S
C250        H252   1.082       .  S
Cu253       N256   2.068       .  S
Cu254       N264   2.076       .  S
Cu255       N257   2.071       .  S
Cu255       N263   2.071       .  S
N256        N257   1.322       .  A
N256        C260   1.344       .  A
N257        C258   1.344       .  A
C258        C259   1.382       .  A
C258        H261   1.082       .  S
C259        C260   1.381       .  A
C259        C283   1.466       .  S
C260        H262   1.082       .  S
N263        N264   1.321       .  A
N263        C267   1.345       .  A
N264        C265   1.344       .  A
C265        C266   1.386       .  A
C265        H268   1.082       .  S
C266        C267   1.386       .  A
C266        C442   1.484       .  S
C267        H269   1.081       .  S
O270       Cu278   2.005       .  S
O270        C280   1.277   1_565  A
O271       Cu278   2.006       .  S
O271        C281   1.277   1_556  A
O272       Cu278   2.005       .  S
O272        C282   1.277       .  A
O273       Cu278   2.004       .  S
O273        C283   1.277   1_566  A
O274       Cu279   2.007       .  S
O274        C283   1.277   1_566  A
O275       Cu279   2.008       .  S
O275        C282   1.277       .  A
O276       Cu279   2.009       .  S
O276        C281   1.277   1_556  A
O277       Cu279   2.008       .  S
O277        C280   1.277   1_565  A
Cu278      Cu279   2.377       .  S
C284        C285   1.413       .  A
C284        C289   1.411       .  A
C284        C403   1.507       .  S
C285        C286   1.405       .  A
C285        H290   1.082       .  S
C286        C287   1.400       .  A
C286        C430   1.488       .  S
C287        C288   1.400       .  A
C287        H291   1.084       .  S
C288        C289   1.407       .  A
C288        C418   1.482       .  S
C289        H292   1.081       .  S
N293        N294   1.322       .  A
N293        C297   1.345       .  A
N293       Cu301   2.076       .  S
N294        C295   1.344       .  A
N294       Cu300   2.072       .  S
C295        C296   1.385       .  A
C295        H298   1.081       .  S
C296        C297   1.386       .  A
C296        C499   1.483       .  S
C297        H299   1.081       .  S
Cu300       N303   2.072       .  S
Cu301       N311   2.076       .  S
Cu302       N304   2.065       .  S
Cu302       N310   2.065       .  S
N303        N304   1.322       .  A
N303        C307   1.345       .  A
N304        C305   1.343       .  A
C305        C306   1.381       .  A
C305        H308   1.082       .  S
C306        C307   1.383       .  A
C306        C399   1.466       .  S
C307        H309   1.082       .  S
N310        N311   1.321       .  A
N310        C314   1.345       .  A
N311        C312   1.344       .  A
C312        C313   1.386       .  A
C312        H315   1.081       .  S
C313        C314   1.384       .  A
C313        C682   1.482       .  S
C314        H316   1.081       .  S
N317        N318   1.321       .  A
N317        C321   1.344       .  A
N317       Cu325   2.072       .  S
N318        C319   1.344       .  A
N318       Cu324   2.073       .  S
C319        C320   1.386       .  A
C319        H322   1.082       .  S
C320        C321   1.386       .  A
C320        C562   1.485       .  S
C321        H323   1.081       .  S
Cu324       N327   2.073       .  S
Cu325       N335   2.072       .  S
Cu326       N328   2.068       .  S
Cu326       N334   2.068       .  S
N327        N328   1.322       .  A
N327        C331   1.345       .  A
N328        C329   1.344       .  A
C329        C330   1.381       .  A
C329        H332   1.082       .  S
C330        C331   1.383       .  A
C330        C402   1.466       .  S
C331        H333   1.082       .  S
N334        N335   1.321       .  A
N334        C338   1.344       .  A
N335        C336   1.343       .  A
C336        C337   1.386       .  A
C336        H339   1.082       .  S
C337        C338   1.386       .  A
C337        C538   1.483       .  S
C338        H340   1.082       .  S
N341        N342   1.322       .  A
N341        C345   1.344       .  A
N341       Cu349   2.073       .  S
N342        C343   1.345       .  A
N342       Cu348   2.073       .  S
C343        C344   1.385       .  A
C343        H346   1.082       .  S
C344        C345   1.385       .  A
C344        C631   1.482       .  S
C345        H347   1.082       .  S
Cu348       N351   2.073       .  S
Cu349       N359   2.073       .  S
Cu350       N352   2.069       .  S
Cu350       N358   2.069       .  S
N351        N352   1.322       .  A
N351        C355   1.345       .  A
N352        C353   1.344       .  A
C353        C354   1.382       .  A
C353        H356   1.082       .  S
C354        C355   1.382       .  A
C354        C401   1.466       .  S
C355        H357   1.082       .  S
N358        N359   1.321       .  A
N358        C362   1.344       .  A
N359        C360   1.344       .  A
C360        C361   1.385       .  A
C360        H363   1.082       .  S
C361        C362   1.385       .  A
C361        C466   1.481       .  S
C362        H364   1.081       .  S
N365        N366   1.322       .  A
N365        C369   1.345       .  A
N365       Cu373   2.082       .  S
N366        C367   1.344       .  A
N366       Cu372   2.069       .  S
C367        C368   1.384       .  A
C367        H370   1.082       .  S
C368        C369   1.388       .  A
C368        C586   1.485       .  S
C369        H371   1.080       .  S
Cu372       N375   2.069       .  S
Cu373       N383   2.082       .  S
Cu374       N376   2.067       .  S
Cu374       N382   2.067       .  S
N375        N376   1.322       .  A
N375        C379   1.345       .  A
N376        C377   1.343       .  A
C377        C378   1.381       .  A
C377        H380   1.082       .  S
C378        C379   1.382       .  A
C378        C400   1.466       .  S
C379        H381   1.082       .  S
N382        N383   1.322       .  A
N382        C386   1.345       .  A
N383        C384   1.345       .  A
C384        C385   1.384       .  A
C384        H387   1.081       .  S
C385        C386   1.381       .  A
C385        C406   1.475       .  S
C386        H388   1.082       .  S
O389       Cu397   2.006       .  S
O389        C399   1.277       .  A
O390       Cu397   2.008       .  S
O390        C400   1.277   1_665  A
O391       Cu397   2.007       .  S
O391        C401   1.277   1_565  A
O392       Cu397   2.006       .  S
O392        C402   1.277   1_655  A
O393       Cu398   2.006       .  S
O393        C402   1.277   1_655  A
O394       Cu398   2.006       .  S
O394        C401   1.277   1_565  A
O395       Cu398   2.003       .  S
O395        C400   1.277   1_665  A
O396       Cu398   2.005       .  S
O396        C399   1.277       .  A
Cu397      Cu398   2.377       .  S
C403        C404   1.413       .  A
C403        C408   1.425       .  A
C404        C405   1.401       .  A
C404        H413   1.084       .  S
C405        C406   1.408       .  A
C405        S409   1.804       .  S
C406        C407   1.396       .  A
C407        C408   1.402       .  A
C407        H414   1.084       .  S
C408        S410   1.802       .  S
S409        H412   1.407       .  S
S410        H411   1.407       .  S
C415        C416   1.402       .  A
C415        C420   1.415       .  A
C416        C417   1.397       .  A
C416        H425   1.084       .  S
C417        C418   1.414       .  A
C417        S421   1.801       .  S
C418        C419   1.404       .  A
C419        C420   1.401       .  A
C419        H426   1.085       .  S
C420        S422   1.802       .  S
S421        H424   1.406       .  S
S422        H423   1.407       .  S
C427        C428   1.403       .  A
C427        C432   1.414       .  A
C428        C429   1.400       .  A
C428        H437   1.084       .  S
C429        C430   1.417       .  A
C429        S433   1.805       .  S
C430        C431   1.405       .  A
C431        C432   1.400       .  A
C431        H438   1.084       .  S
C432        S434   1.803       .  S
S433        H436   1.407       .  S
S434        H435   1.407       .  S
C439        C440   1.403       .  A
C439        C444   1.414       .  A
C440        C441   1.400       .  A
C440        H449   1.084       .  S
C441        C442   1.417       .  A
C441        S445   1.802       .  S
C442        C443   1.404       .  A
C443        C444   1.398       .  A
C443        H450   1.083       .  S
C444        S446   1.805       .  S
S445        H448   1.407       .  S
S446        H447   1.407       .  S
C451        C452   1.404       .  A
C451        C456   1.415       .  A
C452        C453   1.400       .  A
C452        H461   1.084       .  S
C453        C454   1.416       .  A
C453        S457   1.802       .  S
C454        C455   1.404       .  A
C455        C456   1.399       .  A
C455        H462   1.084       .  S
C456        S458   1.805       .  S
S457        H460   1.407       .  S
S458        H459   1.407       .  S
C463        C464   1.404       .  A
C463        C468   1.415       .  A
C464        C465   1.399       .  A
C464        H473   1.084       .  S
C465        C466   1.415       .  A
C465        S469   1.803       .  S
C466        C467   1.404       .  A
C467        C468   1.398       .  A
C467        H474   1.084       .  S
C468        S470   1.805       .  S
S469        H472   1.407       .  S
S470        H471   1.407       .  S
C475        C476   1.405       .  A
C475        C480   1.417       .  A
C476        C477   1.400       .  A
C476        H485   1.084       .  S
C477        C478   1.414       .  A
C477        S481   1.803       .  S
C478        C479   1.403       .  A
C479        C480   1.399       .  A
C479        H486   1.084       .  S
C480        S482   1.804       .  S
S481        H484   1.407       .  S
S482        H483   1.407       .  S
C487        C488   1.406       .  A
C487        C492   1.414       .  A
C488        C489   1.401       .  A
C488        H497   1.084       .  S
C489        C490   1.413       .  A
C489        S493   1.804       .  S
C490        C491   1.404       .  A
C491        C492   1.396       .  A
C491        H498   1.084       .  S
C492        S494   1.803       .  S
S493        H496   1.406       .  S
S494        H495   1.407       .  S
C499        C500   1.404       .  A
C499        C504   1.415       .  A
C500        C501   1.400       .  A
C500        H509   1.084       .  S
C501        C502   1.416       .  A
C501        S505   1.804       .  S
C502        C503   1.405       .  A
C503        C504   1.398       .  A
C503        H510   1.084       .  S
C504        S506   1.803       .  S
S505        H508   1.407       .  S
S506        H507   1.407       .  S
C511        C512   1.406       .  A
C511        C516   1.416       .  A
C512        C513   1.398       .  A
C512        H521   1.084       .  S
C513        C514   1.414       .  A
C513        S517   1.803       .  S
C514        C515   1.404       .  A
C515        C516   1.401       .  A
C515        H522   1.084       .  S
C516        S518   1.803       .  S
S517        H520   1.407       .  S
S518        H519   1.406       .  S
C523        C524   1.405       .  A
C523        C528   1.415       .  A
C524        C525   1.400       .  A
C524        H533   1.084       .  S
C525        C526   1.413       .  A
C525        S529   1.803       .  S
C526        C527   1.404       .  A
C527        C528   1.398       .  A
C527        H534   1.084       .  S
C528        S530   1.802       .  S
S529        H532   1.406       .  S
S530        H531   1.407       .  S
C535        C536   1.404       .  A
C535        C540   1.415       .  A
C536        C537   1.400       .  A
C536        H545   1.084       .  S
C537        C538   1.416       .  A
C537        S541   1.802       .  S
C538        C539   1.404       .  A
C539        C540   1.397       .  A
C539        H546   1.084       .  S
C540        S542   1.805       .  S
S541        H544   1.407       .  S
S542        H543   1.407       .  S
C547        C548   1.405       .  A
C547        C552   1.417       .  A
C548        C549   1.398       .  A
C548        H557   1.084       .  S
C549        C550   1.412       .  A
C549        S553   1.805       .  S
C550        C551   1.402       .  A
C551        C552   1.400       .  A
C551        H558   1.084       .  S
C552        S554   1.802       .  S
S553        H556   1.406       .  S
S554        H555   1.407       .  S
C559        C560   1.401       .  A
C559        C564   1.411       .  A
C560        C561   1.398       .  A
C560        H569   1.084       .  S
C561        C562   1.417       .  A
C561        S565   1.802       .  S
C562        C563   1.407       .  A
C563        C564   1.400       .  A
C563        H570   1.083       .  S
C564        S566   1.804       .  S
S565        H568   1.407       .  S
S566        H567   1.406       .  S
C571        C572   1.404       .  A
C571        C576   1.414       .  A
C572        C573   1.397       .  A
C572        H581   1.084       .  S
C573        C574   1.414       .  A
C573        S577   1.802       .  S
C574        C575   1.405       .  A
C575        C576   1.401       .  A
C575        H582   1.083       .  S
C576        S578   1.804       .  S
S577        H580   1.407       .  S
S578        H579   1.406       .  S
C583        C584   1.402       .  A
C583        C588   1.411       .  A
C584        C585   1.397       .  A
C584        H593   1.084       .  S
C585        C586   1.415       .  A
C585        S589   1.802       .  S
C586        C587   1.408       .  A
C587        C588   1.402       .  A
C587        H594   1.083       .  S
C588        S590   1.804       .  S
S589        H592   1.407       .  S
S590        H591   1.406       .  S
C595        C596   1.405       .  A
C595        C600   1.416       .  A
C596        C597   1.398       .  A
C596        H605   1.084       .  S
C597        C598   1.413       .  A
C597        S601   1.803       .  S
C598        C599   1.404       .  A
C599        C600   1.400       .  A
C599        H606   1.084       .  S
C600        S602   1.804       .  S
S601        H604   1.407       .  S
S602        H603   1.406       .  S
C607        C608   1.405       .  A
C607        C612   1.416       .  A
C608        C609   1.398       .  A
C608        H617   1.084       .  S
C609        C610   1.413       .  A
C609        S613   1.803       .  S
C610        C611   1.403       .  A
C611        C612   1.404       .  A
C611        H618   1.083       .  S
C612        S614   1.809       .  S
S613        H616   1.407       .  S
S614        H615   1.407       .  S
C619        C620   1.404       .  A
C619        C624   1.416       .  A
C620        C621   1.398       .  A
C620        H629   1.084       .  S
C621        C622   1.414       .  A
C621        S625   1.805       .  S
C622        C623   1.404       .  A
C623        C624   1.401       .  A
C623        H630   1.084       .  S
C624        S626   1.802       .  S
S625        H628   1.407       .  S
S626        H627   1.407       .  S
C631        C632   1.404       .  A
C631        C636   1.415       .  A
C632        C633   1.399       .  A
C632        H641   1.084       .  S
C633        C634   1.416       .  A
C633        S637   1.805       .  S
C634        C635   1.405       .  A
C635        C636   1.399       .  A
C635        H642   1.084       .  S
C636        S638   1.802       .  S
S637        H640   1.407       .  S
S638        H639   1.407       .  S
C643        C644   1.405       .  A
C643        C648   1.415       .  A
C644        C645   1.400       .  A
C644        H653   1.084       .  S
C645        C646   1.414       .  A
C645        S649   1.804       .  S
C646        C647   1.403       .  A
C647        C648   1.398       .  A
C647        H654   1.084       .  S
C648        S650   1.802       .  S
S649        H652   1.406       .  S
S650        H651   1.407       .  S
C655        C656   1.405       .  A
C655        C660   1.418       .  A
C656        C657   1.397       .  A
C656        H665   1.083       .  S
C657        C658   1.410       .  A
C657        S661   1.802       .  S
C658        C659   1.401       .  A
C659        C660   1.401       .  A
C659        H666   1.084       .  S
C660        S662   1.802       .  S
S661        H664   1.406       .  S
S662        H663   1.407       .  S
C667        C668   1.403       .  A
C667        C672   1.414       .  A
C668        C669   1.399       .  A
C668        H677   1.084       .  S
C669        C670   1.417       .  A
C669        S673   1.805       .  S
C670        C671   1.406       .  A
C671        C672   1.399       .  A
C671        H678   1.084       .  S
C672        S674   1.803       .  S
S673        H676   1.407       .  S
S674        H675   1.407       .  S
C679        C680   1.405       .  A
C679        C684   1.415       .  A
C680        C681   1.401       .  A
C680        H689   1.084       .  S
C681        C682   1.416       .  A
C681        S685   1.802       .  S
C682        C683   1.402       .  A
C683        C684   1.396       .  A
C683        H690   1.084       .  S
C684        S686   1.800       .  S
S685        H688   1.407       .  S
S686        H687   1.407       .  S
