geometry optimzed in LAMMPS
_audit_creation_date              2020-12-01 
_audit_creation_method            'lammps2cif' 
_symmetry_space_group_name_H-M    'P1' 
_symmetry_Int_Tables_number       1 
_symmetry_cell_setting            triclinic 
loop_ 
_symmetry_equiv_pos_as_xyz 
  x,y,z 
_cell_length_a                    101.21108136 
_cell_length_b                    101.10718011129451 
_cell_length_c                    26.704714140053216 
_cell_angle_alpha                 90.04234735288702 
_cell_angle_beta                  90.17892417045324 
_cell_angle_gamma                 135.761392902888 
loop_ 
_atom_site_label 
_atom_site_type_symbol 
_atom_site_fract_x 
_atom_site_fract_y 
_atom_site_fract_z 
_atom_site_charge 
N1          N  0.08841155  0.52465285  0.60151010    -0.26100
N2          N  0.09656193  0.52068845  0.57702391    -0.33900
C3          C  0.10632956  0.52022633  0.60976067     0.02300
C4          C  0.10437973  0.52424130  0.65722749     0.08300
C5          C  0.09285590  0.52692708  0.65032452    -0.04800
H6          H  0.11438561  0.51734278  0.59933229     0.09000
H7          H  0.08849933  0.53091327  0.67822628     0.10200
Cu8        Cu  0.09576890  0.51798502  0.49977672     0.44200
Cu9        Cu  0.07192444  0.52724857  0.56827808     0.42000
Cu10       Cu  0.07113369  0.52617208  0.43373987     0.43900
N11         N  0.09636707  0.52055407  0.42257103    -0.33500
N12         N  0.08775328  0.52412895  0.39881627    -0.27700
C13         C  0.09207445  0.52666834  0.34999098    -0.03800
C14         C  0.10398890  0.52451392  0.34218325     0.08400
C15         C  0.10632480  0.52057820  0.38930323     0.02200
H16         H  0.08741129  0.53054757  0.32280369     0.09900
H17         H  0.11478035  0.51811022  0.39918263     0.08900
N18         N  0.05455115  0.52669610  0.47627986    -0.34900
N19         N  0.05478195  0.52711249  0.52570439    -0.27100
C20         C  0.04127453  0.52574910  0.54182106    -0.02300
C21         C  0.03202551  0.52429186  0.50037987     0.06300
C22         C  0.04094909  0.52508852  0.45950492     0.04400
H23         H  0.03778237  0.52479673  0.58076091     0.09500
H24         H  0.03753814  0.52406927  0.42034817     0.08300
N25         N  0.14708146  0.53451528  0.92269678    -0.26100
N26         N  0.16337802  0.54560330  0.89876868    -0.33900
C27         C  0.16035044  0.54597476  0.85003694     0.02300
C28         C  0.14113661  0.53442293  0.84249802     0.08300
C29         C  0.13322063  0.52731875  0.88968138    -0.04800
H30         H  0.17157736  0.55483396  0.82291222     0.09000
H31         H  0.11853340  0.51792767  0.90002337     0.10200
Cu32       Cu  0.18938616  0.56129598  0.93311830     0.44200
Cu33       Cu  0.14457282  0.53212725  0.99984052     0.42000
Cu34       Cu  0.18936198  0.56645245  0.06544328     0.43900
N35         N  0.21379355  0.57847435  0.97634741    -0.33500
N36         N  0.21373581  0.58071333  0.02502159    -0.27700
C37         C  0.23164034  0.59357503  0.04222749    -0.03800
C38         C  0.24360029  0.59971314  0.00240799     0.08400
C39         C  0.23178303  0.58979157  0.96117336     0.02200
H40         H  0.23559948  0.59808788  0.08088519     0.09900
H41         H  0.23595346  0.59117941  0.92274844     0.08900
N42         N  0.16341920  0.55016181  0.09946249    -0.34900
N43         N  0.14697782  0.53723370  0.07606422    -0.27100
C44         C  0.13297500  0.52929561  0.10903816    -0.02300
C45         C  0.14101602  0.53765427  0.15553034     0.06300
C46         C  0.16036999  0.55085763  0.14779744     0.04400
H47         H  0.11806159  0.51821514  0.09964636     0.09500
H48         H  0.17152047  0.56060203  0.17487784     0.08300
N49         N  0.89879313  0.49241621  0.38953919    -0.26100
N50         N  0.88509705  0.48873735  0.41381430    -0.33900
C51         C  0.87418519  0.48743381  0.38080684     0.02300
C52         C  0.88128735  0.49036033  0.33342623     0.08300
C53         C  0.89685741  0.49339907  0.34024169    -0.04800
H54         H  0.86193754  0.48451558  0.39069094     0.09000
H55         H  0.90635534  0.49656688  0.31173827     0.10200
Cu56       Cu  0.88196424  0.48636965  0.49057675     0.44200
Cu57       Cu  0.92005186  0.49705180  0.42470015     0.42000
Cu58       Cu  0.91915865  0.49706038  0.56006456     0.43900
N59         N  0.88324527  0.48712861  0.56777886    -0.33500
N60         N  0.89699981  0.49114084  0.59306207    -0.27700
C61         C  0.89450202  0.49148695  0.64215677    -0.03800
C62         C  0.87838595  0.48753578  0.64822896     0.08400
C63         C  0.87159047  0.48482941  0.60015985     0.02200
H64         H  0.90415155  0.49506697  0.67105690     0.09900
H65         H  0.85921704  0.48160290  0.58931316     0.08900
N66         N  0.93998888  0.50272171  0.51909485    -0.34900
N67         N  0.94023313  0.50259497  0.46965363    -0.27100
C68         C  0.95538305  0.50653106  0.45459194    -0.02300
C69         C  0.96515664  0.50924169  0.49661539     0.06300
C70         C  0.95498942  0.50675403  0.53688783     0.04400
H71         H  0.95902240  0.50745348  0.41581771     0.09500
H72         H  0.95794992  0.50734321  0.57623204     0.08300
N73         N  0.84401843  0.48659620  0.91551371    -0.26100
N74         N  0.83017630  0.48231334  0.88992883    -0.33900
C75         C  0.83329516  0.48284951  0.84078529     0.02300
C76         C  0.84990002  0.48762712  0.83517914     0.08300
C77         C  0.85631698  0.48990928  0.88346011    -0.04800
H78         H  0.82373952  0.47922083  0.81149974     0.09000
H79         H  0.86888625  0.49353579  0.89468406     0.10200
Cu80       Cu  0.80712105  0.47461916  0.92353541     0.44200
Cu81       Cu  0.84490995  0.48693999  0.99259010     0.42000
Cu82       Cu  0.80718456  0.47619428  0.06036696     0.43900
N83         N  0.78510191  0.46631162  0.96570733    -0.33500
N84         N  0.78521760  0.46729263  0.01512997    -0.27700
C85         C  0.76836871  0.45993392  0.03027426    -0.03800
C86         C  0.75710852  0.45386406  0.98841203     0.08400
C87         C  0.76815144  0.45810552  0.94818366     0.02200
H88         H  0.76423005  0.45808479  0.06897446     0.09900
H89         H  0.76398291  0.45491601  0.90916090     0.08900
N90         N  0.82998729  0.48316519  0.09483309    -0.34900
N91         N  0.84344972  0.48672584  0.06950258    -0.27100
C92         C  0.85553527  0.48963410  0.10165639    -0.02300
C93         C  0.84948515  0.48786492  0.14973955     0.06300
C94         C  0.83326658  0.48383636  0.14415094     0.04400
H95         H  0.86777793  0.49268663  0.09064496     0.09500
H96         H  0.82415933  0.48091653  0.17356718     0.08300
N97         N  0.53062930  0.14126144  0.60531785    -0.26100
N98         N  0.53633514  0.15608864  0.58160034    -0.33900
C99         C  0.54252031  0.16940814  0.61547332     0.02300
C100        C  0.54054457  0.16262446  0.66294020     0.08300
C101        C  0.53299058  0.14472035  0.65487382    -0.04800
H102        H  0.54731361  0.18271402  0.60626019     0.09000
H103        H  0.52925426  0.13479522  0.68286998     0.10200
Cu104      Cu  0.53407906  0.15677747  0.50452764     0.44200
Cu105      Cu  0.51909646  0.11666808  0.56931590     0.42000
Cu106      Cu  0.51336675  0.11449929  0.43438754     0.43900
N107        N  0.52935148  0.15369504  0.42770548    -0.33500
N108        N  0.52176725  0.13836546  0.40211146    -0.27700
C109        C  0.52121090  0.14127320  0.35328301    -0.03800
C110        C  0.52882438  0.15931473  0.34778139     0.08400
C111        C  0.53376864  0.16669394  0.39592030     0.02200
H112        H  0.51577853  0.13102081  0.32397407     0.09900
H113        H  0.54070036  0.18076117  0.40698721     0.08900
N114        N  0.50712536  0.09318285  0.47631346    -0.34900
N115        N  0.50888897  0.09392537  0.52560093    -0.27100
C116        C  0.50375695  0.07815885  0.54154616    -0.02300
C117        C  0.49863594  0.06694357  0.50037464     0.06300
C118        C  0.50100376  0.07695349  0.45958734     0.04400
H119        H  0.50417190  0.07529932  0.58022612     0.09500
H120        H  0.49834587  0.07270080  0.42064394     0.08300
N121        N  0.54912543  0.20426819  0.92821068    -0.26100
N122        N  0.55620004  0.21921772  0.90197304    -0.33900
C123        C  0.55717462  0.21629947  0.85358439     0.02300
C124        C  0.55044984  0.19862953  0.84899643     0.08300
C125        C  0.54546541  0.19144525  0.89730195    -0.04800
H126        H  0.56231949  0.22631674  0.82402206     0.09000
H127        H  0.53999883  0.17807559  0.90953986     0.10200
Cu128      Cu  0.56535206  0.24330723  0.93430177     0.44200
Cu129      Cu  0.54575001  0.20263316  0.00517435     0.42000
Cu130      Cu  0.56537856  0.24515833  0.07103077     0.43900
N131        N  0.57667567  0.26703890  0.97495114    -0.33500
N132        N  0.57662702  0.26782920  0.02440508    -0.27700
C133        C  0.58616882  0.28564398  0.03822720    -0.03800
C134        C  0.59269705  0.29656705  0.99546654     0.08400
C135        C  0.58640310  0.28429201  0.95612837     0.02200
H136        H  0.58904933  0.29053228  0.07658789     0.09900
H137        H  0.58919522  0.28776770  0.91675173     0.08900
N138        N  0.55350980  0.22027717  0.10700456    -0.34900
N139        N  0.54614524  0.20485405  0.08241003    -0.27100
C140        C  0.54005588  0.19143711  0.11536485    -0.02300
C141        C  0.54381554  0.19863276  0.16337199     0.06300
C142        C  0.55229788  0.21699344  0.15658003     0.04400
H143        H  0.53344279  0.17743860  0.10484623     0.09500
H144        H  0.55769983  0.22739235  0.18539506     0.08300
N145        N  0.44905531  0.92375010  0.61516528    -0.26100
N146        N  0.44466110  0.90965172  0.59057114    -0.33900
C147        C  0.43973619  0.89672204  0.62357437     0.02300
C148        C  0.44102042  0.90285465  0.67141993     0.08300
C149        C  0.44689613  0.92003858  0.66460998    -0.04800
H150        H  0.43538885  0.88369836  0.61329773     0.09000
H151        H  0.44983011  0.92938223  0.69344977     0.10200
Cu152      Cu  0.44551904  0.90825683  0.51322421     0.44200
Cu153      Cu  0.45836934  0.94762568  0.58000488     0.42000
Cu154      Cu  0.46251163  0.94825544  0.44382951     0.43900
N155        N  0.44722949  0.90959031  0.43562360    -0.33500
N156        N  0.45379746  0.92446794  0.41006672    -0.27700
C157        C  0.45259441  0.92086546  0.36083755    -0.03800
C158        C  0.44468053  0.90268274  0.35477845     0.08400
C159        C  0.44153983  0.89606472  0.40336903     0.02200
H160        H  0.45701868  0.93078892  0.33183128     0.09900
H161        H  0.43487116  0.88214253  0.41471547     0.08900
N162        N  0.46865475  0.96962049  0.48499615    -0.34900
N163        N  0.46714209  0.96942839  0.53422407    -0.27100
C164        C  0.47164674  0.98504865  0.54842985    -0.02300
C165        C  0.47615486  0.99560726  0.50615863     0.06300
C166        C  0.47411348  0.98532430  0.46668909     0.04400
H167        H  0.47168061  0.98845195  0.58686890     0.09500
H168        H  0.47592527  0.98867510  0.42728053     0.08300
N169        N  0.42024742  0.85467325  0.93443382    -0.26100
N170        N  0.41475813  0.84043513  0.90759156    -0.33900
C171        C  0.41699841  0.84484585  0.85872206     0.02300
C172        C  0.42414330  0.86270059  0.85477356     0.08300
C173        C  0.42598033  0.86845174  0.90354756    -0.04800
H174        H  0.41350531  0.83566746  0.82838868     0.09000
H175        H  0.43139432  0.88181863  0.91584614     0.10200
Cu176      Cu  0.40466847  0.81595338  0.93982440     0.44200
Cu177      Cu  0.42001231  0.85492256  0.01179159     0.42000
Cu178      Cu  0.39959834  0.81324654  0.07781214     0.43900
N179        N  0.39614678  0.79401824  0.98360973    -0.33500
N180        N  0.39396493  0.79290393  0.03277479    -0.27700
C181        C  0.38799816  0.77675110  0.04880856    -0.03800
C182        C  0.38640684  0.76726952  0.00791395     0.08400
C183        C  0.39172217  0.77864084  0.96721140     0.02200
H184        H  0.38504730  0.77227341  0.08746329     0.09900
H185        H  0.39180236  0.77569726  0.92833424     0.08900
N186        N  0.41052433  0.83761765  0.11394276    -0.34900
N187        N  0.41848411  0.85310016  0.08899278    -0.27100
C188        C  0.42551016  0.86699894  0.12156839    -0.02300
C189        C  0.42178462  0.86003459  0.16979253     0.06300
C190        C  0.41220437  0.84125323  0.16339604     0.04400
H191        H  0.43330639  0.88132650  0.11062856     0.09500
H192        H  0.40695538  0.83100675  0.19233226     0.08300
C193        C  0.35491715  0.66931131  0.98976838     0.81400
N194        N  0.36369822  0.68758372  0.99150602    -0.76900
C195        C  0.35342280  0.69144110  0.99830423     0.83900
N196        N  0.33431403  0.67691904  0.00244558    -0.76800
C197        C  0.32536489  0.65866992  0.99949998     0.84000
N198        N  0.33573949  0.65495772  0.99313586    -0.78500
N199        N  0.47437450  0.60096564  0.59440843    -0.26100
N200        N  0.46833088  0.60704233  0.56913302    -0.33900
C201        C  0.46377944  0.61345751  0.60138404     0.02300
C202        C  0.46700636  0.61123372  0.64954330     0.08300
C203        C  0.47378556  0.60331280  0.64361674    -0.04800
H204        H  0.45784102  0.61864296  0.59047897     0.09000
H205        H  0.47785768  0.59938714  0.67282232     0.10200
Cu206      Cu  0.46528430  0.60506875  0.49241292     0.44200
Cu207      Cu  0.48214814  0.58888202  0.56045041     0.42000
Cu208      Cu  0.47762777  0.58426826  0.42430509     0.43900
N209        N  0.46269284  0.60134322  0.41589773    -0.33500
N210        N  0.46737006  0.59398721  0.39047909    -0.27700
C211        C  0.46465082  0.59437569  0.34136785    -0.03800
C212        C  0.45791802  0.60236919  0.33571269     0.08400
C213        C  0.45678028  0.60648407  0.38396346     0.02200
H214        H  0.46792696  0.58973266  0.31202039     0.09900
H215        H  0.45206557  0.61281691  0.39540534     0.08900
N216        N  0.48722846  0.57554471  0.46819613    -0.34900
N217        N  0.48876087  0.57712630  0.51751225    -0.27100
C218        C  0.49546090  0.57027958  0.53418308    -0.02300
C219        C  0.49841498  0.56413596  0.49342995     0.06300
C220        C  0.49298114  0.56771206  0.45222529     0.04400
H221        H  0.49784073  0.56972625  0.57326484     0.09500
H222        H  0.49356772  0.56526330  0.41326384     0.08300
N223        N  0.44710511  0.62850929  0.91579706    -0.26100
N224        N  0.44049336  0.63399530  0.89041613    -0.33900
C225        C  0.44246154  0.63304948  0.84115900     0.02300
C226        C  0.45067496  0.62659565  0.83529188     0.08300
C227        C  0.45341929  0.62387761  0.88347671    -0.04800
H228        H  0.43778136  0.63632783  0.81187979     0.09000
H229        H  0.45956905  0.61891231  0.89440368     0.10200
Cu230      Cu  0.42840309  0.64169899  0.92414930     0.44200
Cu231      Cu  0.44660221  0.62693153  0.99298966     0.42000
Cu232      Cu  0.42425802  0.63786151  0.05983460     0.43900
N233        N  0.41545045  0.64705924  0.96599650    -0.33500
N234        N  0.41348853  0.64515761  0.01517683    -0.27700
C235        C  0.40339110  0.64845165  0.03023270    -0.03800
C236        C  0.39898019  0.65282072  0.98857798     0.08400
C237        C  0.40688516  0.65187676  0.94850507     0.02200
H238        H  0.39953608  0.64770207  0.06862556     0.09900
H239        H  0.40597599  0.65393956  0.90941133     0.08900
N240        N  0.43559316  0.62942017  0.09448379    -0.34900
N241        N  0.44351595  0.62521984  0.06983930    -0.27100
C242        C  0.44884067  0.61964971  0.10255177    -0.02300
C243        C  0.44413971  0.62045904  0.15018334     0.06300
C244        C  0.43580491  0.62676692  0.14369701     0.04400
H245        H  0.45579775  0.61549292  0.09232736     0.09500
H246        H  0.42998103  0.62891126  0.17244581     0.08300
N247        N  0.55649128  0.49862273  0.40168625    -0.26100
N248        N  0.56219586  0.49240741  0.42817776    -0.33900
C249        C  0.56559661  0.48470397  0.39704313     0.02300
C250        C  0.56192583  0.48616867  0.34849431     0.08300
C251        C  0.55614848  0.49506349  0.35293303    -0.06300
H252        H  0.57019855  0.47831127  0.40916698     0.09000
H253        H  0.55227367  0.49897447  0.32301973     0.10200
Cu254      Cu  0.56500208  0.49428821  0.50535637     0.44200
Cu255      Cu  0.54889790  0.51115821  0.43260796     0.42000
Cu256      Cu  0.54892807  0.51214713  0.56802461     0.43900
N257        N  0.56515318  0.49649231  0.58246385    -0.33500
N258        N  0.55901458  0.50279771  0.60565376    -0.27700
C259        C  0.56052062  0.50203548  0.65543420    -0.03800
C260        C  0.56807071  0.49498274  0.66402025     0.08400
C261        C  0.57078603  0.49161826  0.61674117     0.02200
H262        H  0.55659624  0.50649829  0.68317849     0.09900
H263        H  0.57607693  0.48564930  0.60777336     0.08900
N264        N  0.53980569  0.52114205  0.52295560    -0.34900
N265        N  0.53990678  0.52089728  0.47349583    -0.27100
C266        C  0.53317093  0.52760426  0.45574522    -0.02300
C267        C  0.52863838  0.53238518  0.49601452     0.06300
C268        C  0.53302938  0.52804954  0.53800885     0.04400
H269        H  0.53196434  0.52913813  0.41640265     0.09500
H270        H  0.53124050  0.52957540  0.57677136     0.08300
N271        N  0.57766377  0.46490881  0.08339826    -0.26100
N272        N  0.58392908  0.45886247  0.10747109    -0.33900
C273        C  0.58173295  0.45914861  0.15692571     0.02300
C274        C  0.57372370  0.46577141  0.16433373     0.08300
C275        C  0.57136979  0.46927099  0.11675285    -0.04800
H276        H  0.58582100  0.45496439  0.18516880     0.09000
H277        H  0.56613527  0.47523804  0.10693507     0.10200
Cu278      Cu  0.59611908  0.45162200  0.07186656     0.44200
Cu279      Cu  0.57866048  0.46780412  0.00669355     0.42000
Cu280      Cu  0.60057200  0.45730270  0.93626472     0.43900
N281        N  0.60854701  0.44625011  0.02755775    -0.33500
N282        N  0.61039729  0.44844932  0.97844674    -0.27700
C283        C  0.61888514  0.44348735  0.96159168    -0.03800
C284        C  0.62243241  0.43779911  0.00207260     0.08400
C285        C  0.61570757  0.43979297  0.04324454     0.02200
H286        H  0.62168616  0.44344841  0.92259228     0.09900
H287        H  0.61595094  0.43677540  0.08186517     0.08900
N288        N  0.58945370  0.46636451  0.90381540    -0.34900
N289        N  0.58155283  0.47030585  0.92989988    -0.27100
C290        C  0.57629612  0.47630972  0.89872817    -0.02300
C291        C  0.58107089  0.47615718  0.85030320     0.06300
C292        C  0.58933442  0.46966750  0.85512870     0.04400
H293        H  0.56990498  0.48089189  0.91091705     0.09500
H294        H  0.59477506  0.46736397  0.82554604     0.08300
C295        C  0.65197141  0.40576413  0.99481303     0.81400
N296        N  0.67080164  0.41666496  0.99191207    -0.76900
C297        C  0.67707313  0.40848622  0.98852707     0.83900
N298        N  0.66427123  0.38925647  0.98681108    -0.76800
C299        C  0.64539492  0.37820668  0.98999423     0.84000
N300        N  0.63937535  0.38658259  0.99452944    -0.78500
C301        C  0.64514129  0.43731014  0.96778424     0.24800
C302        C  0.63054457  0.43011650  0.00128343    -0.23300
C303        C  0.62353755  0.41527560  0.03365310     0.19700
C304        C  0.63072532  0.40756906  0.03189651     0.24800
C305        C  0.64511593  0.41459206  0.99802343    -0.23200
C306        C  0.65241477  0.42965161  0.96631045     0.19700
F307        F  0.66613477  0.43651857  0.93268508    -0.13200
F308        F  0.65257022  0.45193199  0.93692405    -0.15600
F309        F  0.62372420  0.39331797  0.06374360    -0.15600
F310        F  0.60924158  0.40770959  0.06588720    -0.13200
C311        C  0.55518015  0.46856277  0.21602996     0.24800
C312        C  0.56993562  0.46983217  0.21239384    -0.23300
C313        C  0.58153934  0.47584428  0.25446589     0.19700
C314        C  0.57885018  0.48105670  0.29859627     0.24800
C315        C  0.56435393  0.48015774  0.30195484    -0.23200
C316        C  0.55242956  0.47369391  0.26032566     0.19700
F317        F  0.53784301  0.47195634  0.26263248    -0.13200
F318        F  0.54312182  0.46198524  0.17704977    -0.15600
F319        F  0.59110245  0.48787632  0.33720254    -0.15600
F320        F  0.59611969  0.47757650  0.25248173    -0.13200
C321        C  0.56014448  0.48492429  0.75428313     0.24800
C322        C  0.57198708  0.49129430  0.71281957    -0.23300
C323        C  0.58741205  0.49365090  0.71794304     0.19700
C324        C  0.59056413  0.48913472  0.76282460     0.24800
C325        C  0.57822782  0.48190722  0.80362325    -0.23200
C326        C  0.56313719  0.48015244  0.79906140     0.19700
F327        F  0.55074942  0.47311599  0.83711669    -0.13200
F328        F  0.54514472  0.48252537  0.75102318    -0.15600
F329        F  0.60605185  0.49235014  0.76653553    -0.15600
F330        F  0.59982163  0.50081973  0.67984913    -0.13200
C331        C  0.52634043  0.55361004  0.53176951     0.24800
C332        C  0.52101868  0.54060080  0.49474293    -0.23300
C333        C  0.50836349  0.53554011  0.45679351     0.19700
C334        C  0.50098989  0.54311518  0.45637238     0.24800
C335        C  0.50617773  0.55601541  0.49376567    -0.23200
C336        C  0.51901839  0.56120805  0.53134365     0.19700
F337        F  0.52510339  0.57418519  0.56693870    -0.13200
F338        F  0.53923404  0.55959133  0.56755667    -0.15600
F339        F  0.48830310  0.53729885  0.42010693    -0.15600
F340        F  0.50260708  0.52278496  0.42083117    -0.13200
C341        C  0.46153154  0.63458766  0.74609501     0.24800
C342        C  0.45494767  0.62276873  0.78779714    -0.23300
C343        C  0.45231345  0.60713559  0.78362222     0.19700
C344        C  0.45623641  0.60342197  0.73873762     0.24800
C345        C  0.46290010  0.61526648  0.69703545    -0.23200
C346        C  0.46538426  0.63082748  0.70105698     0.19700
F347        F  0.47204887  0.64274966  0.66189348    -0.13200
F348        F  0.46483906  0.65016246  0.74933932    -0.15600
F349        F  0.45276641  0.58775320  0.73562469    -0.15600
F350        F  0.44526698  0.59498216  0.82241737    -0.13200
C351        C  0.45330468  0.62677949  0.24064479     0.24800
C352        C  0.44734179  0.61561917  0.19770362    -0.23300
C353        C  0.44459325  0.59989503  0.20045826     0.19700
C354        C  0.44767262  0.59536209  0.24548436     0.24800
C355        C  0.45394314  0.60670378  0.28840582    -0.23200
C356        C  0.45667935  0.62245675  0.28543879     0.19700
F357        F  0.46332969  0.63420164  0.32524075    -0.13200
F358        F  0.45665299  0.64239560  0.23879941    -0.15600
F359        F  0.44398282  0.57955016  0.24727626    -0.15600
F360        F  0.43840172  0.58856312  0.15990585    -0.13200
C361        C  0.35948598  0.64879222  0.01255347     0.24800
C362        C  0.36610743  0.66496738  0.98805417    -0.23300
C363        C  0.38351876  0.67691385  0.96263157     0.19700
C364        C  0.39404513  0.67272617  0.96177414     0.24800
C365        C  0.38754663  0.65680370  0.98721471    -0.23200
C366        C  0.37015376  0.64482198  0.01228464     0.19700
F367        F  0.36330463  0.62903451  0.03587421    -0.13200
F368        F  0.34292255  0.63705664  0.03816266    -0.15600
F369        F  0.41085980  0.68453150  0.93735562    -0.15600
F370        F  0.39026280  0.69251481  0.93813226    -0.13200
C371        C  0.35510665  0.71540905  0.03434319     0.24800
C372        C  0.36276323  0.71118024  0.00258725    -0.23300
C373        C  0.37886523  0.72580610  0.97401901     0.19700
C374        C  0.38676993  0.74417508  0.97611782     0.24800
C375        C  0.37882924  0.74822782  0.00723237    -0.23200
C376        C  0.36308594  0.73372935  0.03674234     0.19700
F377        F  0.35485707  0.73705998  0.06648076    -0.13200
F378        F  0.33986553  0.70179939  0.06341465    -0.15600
F379        F  0.40226301  0.75801987  0.94805497    -0.15600
F380        F  0.38654097  0.72220472  0.94271998    -0.13200
C381        C  0.42858625  0.89351183  0.75951812     0.24800
C382        C  0.43724747  0.89315562  0.71917609    -0.23300
C383        C  0.44203946  0.88314305  0.72449057     0.19700
C384        C  0.43783782  0.87331608  0.76861286     0.24800
C385        C  0.42888346  0.87339426  0.80850660    -0.23200
C386        C  0.42451603  0.88378409  0.80384243     0.19700
F387        F  0.41566565  0.88396323  0.84151678    -0.13200
F388        F  0.42337914  0.90265750  0.75547473    -0.15600
F389        F  0.44309381  0.86421593  0.77289843    -0.15600
F390        F  0.45132131  0.88330237  0.68750563    -0.13200
C391        C  0.43769770  0.87698107  0.30476419     0.24800
C392        C  0.43928078  0.89201954  0.30707359    -0.23300
C393        C  0.43513081  0.89639328  0.26352762     0.19700
C394        C  0.42932005  0.88591143  0.21943311     0.24800
C395        C  0.42756083  0.87078895  0.21730820    -0.23200
C396        C  0.43183483  0.86646069  0.26055634     0.19700
F397        F  0.43097975  0.85243773  0.25984597    -0.13200
F398        F  0.44237596  0.87272395  0.34477987    -0.15600
F399        F  0.42480130  0.89027105  0.17923573    -0.15600
F400        F  0.43603057  0.91043791  0.26356435    -0.13200
C401        C  0.63506618  0.34815230  0.96240817     0.24800
C402        C  0.63154499  0.35723466  0.98999766    -0.23300
C403        C  0.61475788  0.34606621  0.01815943     0.19700
C404        C  0.60210696  0.32633244  0.01990989     0.24800
C405        C  0.60576096  0.31734802  0.99270216    -0.23200
C406        C  0.62222654  0.32840344  0.96346258     0.19700
F407        F  0.62623785  0.32013438  0.93718641    -0.13200
F408        F  0.65083041  0.35834691  0.93381119    -0.15600
F409        F  0.58613291  0.31596257  0.04768771    -0.15600
F410        F  0.61081197  0.35426015  0.04523143    -0.13200
C411        C  0.49914520  0.04433721  0.46448800     0.24800
C412        C  0.49239619  0.04846311  0.50048625    -0.23300
C413        C  0.47989653  0.03492056  0.53742597     0.19700
C414        C  0.47436327  0.01766143  0.53866855     0.24800
C415        C  0.48153541  0.01369419  0.50361046    -0.23200
C416        C  0.49390282  0.02721147  0.46623516     0.19700
F417        F  0.50150568  0.02422129  0.43230287    -0.13200
F418        F  0.51144725  0.05721164  0.42873351    -0.15600
F419        F  0.46149382  0.00461146  0.57334519    -0.15600
F420        F  0.47256450  0.03815567  0.57162804    -0.13200
C421        C  0.53183234  0.16081221  0.75246234     0.24800
C422        C  0.54393328  0.17176350  0.71165399    -0.23300
C423        C  0.55885236  0.19157756  0.71731142     0.19700
C424        C  0.56126475  0.20027946  0.76224160     0.24800
C425        C  0.54869892  0.18936919  0.80243813    -0.23200
C426        C  0.53413915  0.16949866  0.79720345     0.19700
F427        F  0.52147550  0.15838997  0.83446362    -0.13200
F428        F  0.51709268  0.14168436  0.74845617    -0.15600
F429        F  0.57616134  0.21937972  0.76655879    -0.15600
F430        F  0.57136158  0.20255994  0.67963687    -0.13200
C431        C  0.53736735  0.16600947  0.25661962     0.24800
C432        C  0.53234102  0.16920728  0.30054683    -0.23300
C433        C  0.53128253  0.18236481  0.29919781     0.19700
C434        C  0.53519322  0.19210120  0.25493401     0.24800
C435        C  0.54017268  0.18883671  0.21098237    -0.23200
C436        C  0.54133021  0.17576091  0.21254976     0.19700
F437        F  0.54699987  0.17285226  0.17185285    -0.13200
F438        F  0.53917443  0.15394088  0.25656479    -0.15600
F439        F  0.53352323  0.20427838  0.25481532    -0.15600
F440        F  0.52588280  0.18540508  0.34031636    -0.13200
C441        C  0.72997681  0.44872337  0.01411710     0.24800
C442        C  0.73678729  0.44263335  0.98751490    -0.23300
C443        C  0.72397503  0.42540299  0.96105438     0.19700
C444        C  0.70459146  0.41428265  0.96160704     0.24800
C445        C  0.69766392  0.42037156  0.98785310    -0.23200
C446        C  0.71059869  0.43777990  0.01399412     0.19700
F447        F  0.70446954  0.44396383  0.04073896    -0.13200
F448        F  0.74213937  0.46540824  0.03967060    -0.15600
F449        F  0.69264315  0.39762802  0.93594854    -0.15600
F450        F  0.73016287  0.41899764  0.93596211    -0.13200
C451        C  0.86267047  0.49417108  0.69806337     0.24800
C452        C  0.87095389  0.48747011  0.69589026    -0.23300
C453        C  0.87269411  0.48127556  0.74015768     0.19700
C454        C  0.86632546  0.48178957  0.78568480     0.24800
C455        C  0.85787754  0.48831714  0.78779019    -0.23200
C456        C  0.85631816  0.49470559  0.74364727     0.19700
F457        F  0.84913726  0.50200882  0.74479716    -0.13200
F458        F  0.86121883  0.50077182  0.65645150    -0.15600
F459        F  0.86781006  0.47520233  0.82726000    -0.15600
F460        F  0.87995153  0.47404829  0.73920893    -0.13200
C461        C  0.87268490  0.48147142  0.24323688     0.24800
C462        C  0.87377948  0.49031133  0.28599821    -0.23300
C463        C  0.86716819  0.49867512  0.28351691     0.19700
C464        C  0.85926162  0.49790431  0.23917595     0.24800
C465        C  0.85794105  0.48884957  0.19656315    -0.23200
C466        C  0.86483821  0.48074788  0.19887908     0.19700
F467        F  0.86331047  0.47144861  0.15879096    -0.13200
F468        F  0.87847416  0.47282307  0.24492898    -0.15600
F469        F  0.85339676  0.50647870  0.23751374    -0.15600
F470        F  0.86881323  0.50803335  0.32365904    -0.13200
C471        C  0.27476194  0.63066791  0.03347258     0.24800
C472        C  0.26452417  0.61440974  0.00326789    -0.23300
C473        C  0.27445472  0.61241429  0.97353118     0.19700
C474        C  0.29425914  0.62650538  0.97356434     0.24800
C475        C  0.30449102  0.64307587  0.00239644    -0.23200
C476        C  0.29454191  0.64490384  0.03281662     0.19700
F477        F  0.30395795  0.66040432  0.06244716    -0.13200
F478        F  0.26566248  0.63315713  0.06236984    -0.15600
F479        F  0.30338754  0.62416091  0.94418305    -0.15600
F480        F  0.26499736  0.59669088  0.94486267    -0.13200
C481        C  0.01227274  0.52835720  0.53663436     0.24800
C482        C  0.01496568  0.52052332  0.49979785    -0.23300
C483        C  0.00104590  0.50878973  0.46249863     0.19700
C484        C  0.98493527  0.50519801  0.46152985     0.24800
C485        C  0.98229539  0.51315672  0.49798851    -0.23200
C486        C  0.99608120  0.52471586  0.53572197     0.19700
F487        F  0.99422288  0.53300195  0.57085115    -0.13200
F488        F  0.02553835  0.53997555  0.57275471    -0.15600
F489        F  0.97158835  0.49331992  0.42581082    -0.15600
F490        F  0.00257592  0.50010532  0.42791760    -0.13200
C491        C  0.10514051  0.52311050  0.75111786     0.24800
C492        C  0.11353856  0.52641661  0.70454747    -0.23300
C493        C  0.13099949  0.53223627  0.70378541     0.19700
C494        C  0.13969677  0.53442417  0.74830509     0.24800
C495        C  0.13150352  0.53146758  0.79505401    -0.23200
C496        C  0.11414384  0.52592210  0.79575319     0.19700
F497        F  0.10595075  0.52367581  0.83948102    -0.13200
F498        F  0.08801752  0.51688241  0.75382940    -0.15600
F499        F  0.15608479  0.53923665  0.74509445    -0.15600
F500        F  0.14009599  0.53640811  0.66004569    -0.13200
C501        C  0.13065422  0.53305385  0.29434867     0.24800
C502        C  0.11313802  0.52716913  0.29437080    -0.23300
C503        C  0.10468479  0.52433469  0.24801280     0.19700
C504        C  0.11372077  0.52776888  0.20301713     0.24800
C505        C  0.13123884  0.53371361  0.20312680    -0.23200
C506        C  0.13948487  0.53611100  0.24932047     0.19700
F507        F  0.15604056  0.54117544  0.25121341    -0.13200
F508        F  0.13967081  0.53644090  0.33777593    -0.15600
F509        F  0.10549539  0.52579369  0.15944668    -0.15600
F510        F  0.08749325  0.51797825  0.24579744    -0.13200
loop_ 
_geom_bond_atom_site_label_1 
_geom_bond_atom_site_label_2 
_geom_bond_distance 
_geom_bond_site_symmetry_2 
_ccdc_geom_bond_type 
N1            N2   1.321       .  A
N1            C5   1.342       .  A
N1           Cu9   2.064       .  S
N2            C3   1.343       .  A
N2           Cu8   2.074       .  S
C3            C4   1.388       .  A
C3            H6   1.081       .  S
C4            C5   1.386       .  A
C4          C492   1.485       .  S
C5            H7   1.081       .  S
Cu8          N11   2.074       .  S
Cu9          N19   2.063       .  S
Cu10         N12   2.061       .  S
Cu10         N18   2.061       .  S
N11          N12   1.320       .  A
N11          C15   1.344       .  A
N12          C13   1.342       .  A
C13          C14   1.387       .  A
C13          H16   1.080       .  S
C14          C15   1.390       .  A
C14         C502   1.487       .  S
C15          H17   1.081       .  S
N18          N19   1.320       .  A
N18          C22   1.341       .  A
N19          C20   1.344       .  A
C20          C21   1.385       .  A
C20          H23   1.081       .  S
C21          C22   1.384       .  A
C21         C482   1.478       .  S
C22          H24   1.082       .  S
N25          N26   1.321       .  A
N25          C29   1.343       .  A
N25         Cu33   2.070       .  S
N26          C27   1.343       .  A
N26         Cu32   2.070       .  S
C27          C28   1.389       .  A
C27          H30   1.080       .  S
C28          C29   1.389       .  A
C28         C495   1.490       .  S
C29          H31   1.081       .  S
Cu32         N35   2.070       .  S
Cu33         N43   2.070   1_556  S
Cu34         N36   2.062       .  S
Cu34         N42   2.062       .  S
N35          N36   1.320   1_556  A
N35          C39   1.345       .  A
N36          C37   1.343       .  A
C37          C38   1.383       .  A
C37          H40   1.081       .  S
C38          C39   1.386   1_554  A
C38         C472   1.478       .  S
C39          H41   1.081       .  S
N42          N43   1.320       .  A
N42          C46   1.342       .  A
N43          C44   1.344       .  A
C44          C45   1.387       .  A
C44          H47   1.082       .  S
C45          C46   1.385       .  A
C45         C505   1.482       .  S
C46          H48   1.081       .  S
N49          N50   1.322       .  A
N49          C53   1.345       .  A
N49         Cu57   2.067       .  S
N50          C51   1.341       .  A
N50         Cu56   2.063       .  S
C51          C52   1.381       .  A
C51          H54   1.082       .  S
C52          C53   1.384       .  A
C52         C462   1.473       .  S
C53          H55   1.082       .  S
Cu56         N59   2.063       .  S
Cu57         N67   2.067       .  S
Cu58         N60   2.063       .  S
Cu58         N66   2.063       .  S
N59          N60   1.320       .  A
N59          C63   1.344       .  A
N60          C61   1.341       .  A
C61          C62   1.384       .  A
C61          H64   1.081       .  S
C62          C63   1.386       .  A
C62         C452   1.478       .  S
C63          H65   1.082       .  S
N66          N67   1.321       .  A
N66          C70   1.344       .  A
N67          C68   1.342       .  A
C68          C69   1.385       .  A
C68          H71   1.082       .  S
C69          C70   1.384       .  A
C69         C485   1.477       .  S
C70          H72   1.081       .  S
N73          N74   1.320       .  A
N73          C77   1.343       .  A
N73         Cu81   2.059       .  S
N74          C75   1.343       .  A
N74         Cu80   2.066       .  S
C75          C76   1.385       .  A
C75          H78   1.081       .  S
C76          C77   1.385       .  A
C76         C455   1.478       .  S
C77          H79   1.082       .  S
Cu80         N83   2.068       .  S
Cu81         N91   2.059   1_556  S
Cu82         N84   2.080       .  S
Cu82         N90   2.080       .  S
N83          N84   1.323   1_556  A
N83          C87   1.344       .  A
N84          C85   1.346       .  A
C85          C86   1.383   1_554  A
C85          H88   1.081       .  S
C86          C87   1.382       .  A
C86         C442   1.474       .  S
C87          H89   1.082       .  S
N90          N91   1.322       .  A
N90          C94   1.347       .  A
N91          C92   1.341       .  A
C92          C93   1.380       .  A
C92          H95   1.082       .  S
C93          C94   1.387       .  A
C93         C465   1.475       .  S
C94          H96   1.081       .  S
N97          N98   1.321       .  A
N97         C101   1.345       .  A
N97        Cu105   2.074       .  S
N98          C99   1.346       .  A
N98        Cu104   2.077       .  S
C99         C100   1.387       .  A
C99         H102   1.083       .  S
C100        C101   1.387       .  A
C100        C422   1.485       .  S
C101        H103   1.081       .  S
Cu104       N107   2.077       .  S
Cu105       N115   2.074       .  S
Cu106       N108   2.087       .  S
Cu106       N114   2.087       .  S
N107        N108   1.323       .  A
N107        C111   1.345       .  A
N108        C109   1.347       .  A
C109        C110   1.389       .  A
C109        H112   1.081       .  S
C110        C111   1.385       .  A
C110        C432   1.488       .  S
C111        H113   1.082       .  S
N114        N115   1.323       .  A
N114        C118   1.348       .  A
N115        C116   1.345       .  A
C116        C117   1.384       .  A
C116        H119   1.082       .  S
C117        C118   1.387       .  A
C117        C412   1.483       .  S
C118        H120   1.082       .  S
N121        N122   1.320       .  A
N121        C125   1.345       .  A
N121       Cu129   2.072   1_556  S
N122        C123   1.345       .  A
N122       Cu128   2.072       .  S
C123        C124   1.388       .  A
C123        H126   1.081       .  S
C124        C125   1.388       .  A
C124        C425   1.488       .  S
C125        H127   1.082       .  S
Cu128       N131   2.073       .  S
Cu129       N139   2.072       .  S
Cu130       N132   2.092       .  S
Cu130       N138   2.092       .  S
N131        N132   1.323   1_556  A
N131        C135   1.345       .  A
N132        C133   1.348       .  A
C133        C134   1.386   1_554  A
C133        H136   1.081       .  S
C134        C135   1.382       .  A
C134        C405   1.479       .  S
C135        H137   1.081       .  S
N138        N139   1.322       .  A
N138        C142   1.350       .  A
N139        C140   1.342       .  A
C140        C141   1.384       .  A
C140        H143   1.082       .  S
C141        C142   1.391       .  A
C141        C435   1.488       .  S
C142        H144   1.081       .  S
N145        N146   1.323       .  A
N145        C149   1.348       .  A
N145       Cu153   2.085       .  S
N146        C147   1.343       .  A
N146       Cu152   2.077       .  S
C147        C148   1.384       .  A
C147        H150   1.082       .  S
C148        C149   1.388       .  A
C148        C382   1.484       .  S
C149        H151   1.081       .  S
Cu152       N155   2.076       .  S
Cu153       N163   2.085       .  S
Cu154       N156   2.080       .  S
Cu154       N162   2.081       .  S
N155        N156   1.320       .  A
N155        C159   1.346       .  A
N156        C157   1.346       .  A
C157        C158   1.392       .  A
C157        H160   1.080       .  S
C158        C159   1.390       .  A
C158        C392   1.494       .  S
C159        H161   1.081       .  S
N162        N163   1.323       .  A
N162        C166   1.346       .  A
N163        C164   1.346       .  A
C164        C165   1.389       .  A
C164        H167   1.082       .  S
C165        C166   1.387       .  A
C165        C415   1.490   1_565  S
C166        H168   1.081       .  S
N169        N170   1.321       .  A
N169        C173   1.343       .  A
N169       Cu177   2.066   1_556  S
N170        C171   1.346       .  A
N170       Cu176   2.073       .  S
C171        C172   1.387       .  A
C171        H174   1.081       .  S
C172        C173   1.383       .  A
C172        C385   1.479       .  S
C173        H175   1.082       .  S
Cu176       N179   2.073       .  S
Cu177       N187   2.066       .  S
Cu178       N180   2.077       .  S
Cu178       N186   2.076       .  S
N179        N180   1.323   1_556  A
N179        C183   1.345       .  A
N180        C181   1.343       .  A
C181        C182   1.383       .  A
C181        H184   1.081       .  S
C182        C183   1.383   1_554  A
C182        C375   1.476       .  S
C183        H185   1.081       .  S
N186        N187   1.320       .  A
N186        C190   1.348       .  A
N187        C188   1.342       .  A
C188        C189   1.386       .  A
C188        H191   1.082       .  S
C189        C190   1.391       .  A
C189        C395   1.489       .  S
C190        H192   1.081       .  S
C193        N194   1.361       .  A
C193        N198   1.359       .  A
C193        C362   1.480       .  S
N194        C195   1.360       .  A
C195        N196   1.357   1_556  A
C195        C372   1.478   1_556  S
N196        C197   1.355   1_554  A
C197        N198   1.356       .  A
C197        C475   1.478   1_556  S
N199        N200   1.321       .  A
N199        C203   1.344       .  A
N199       Cu207   2.077       .  S
N200        C201   1.343       .  A
N200       Cu206   2.059       .  S
C201        C202   1.384       .  A
C201        H204   1.082       .  S
C202        C203   1.387       .  A
C202        C345   1.481       .  S
C203        H205   1.081       .  S
Cu206       N209   2.059       .  S
Cu207       N217   2.078       .  S
Cu208       N210   2.078       .  S
Cu208       N216   2.078       .  S
N209        N210   1.321       .  A
N209        C213   1.341       .  A
N210        C211   1.346       .  A
C211        C212   1.389       .  A
C211        H214   1.081       .  S
C212        C213   1.384       .  A
C212        C355   1.483       .  S
C213        H215   1.081       .  S
N216        N217   1.322       .  A
N216        C220   1.345       .  A
N217        C218   1.345       .  A
C218        C219   1.388       .  A
C218        H221   1.081       .  S
C219        C220   1.388       .  A
C219        C335   1.489       .  S
C220        H222   1.081       .  S
N223        N224   1.321       .  A
N223        C227   1.343       .  A
N223       Cu231   2.066       .  S
N224        C225   1.345       .  A
N224       Cu230   2.071       .  S
C225        C226   1.385       .  A
C225        H228   1.081       .  S
C226        C227   1.384       .  A
C226        C342   1.479       .  S
C227        H229   1.082       .  S
Cu230       N233   2.071       .  S
Cu231       N241   2.066   1_556  S
Cu232       N234   2.074       .  S
Cu232       N240   2.073       .  S
N233        N234   1.322   1_556  A
N233        C237   1.345       .  A
N234        C235   1.344       .  A
C235        C236   1.383   1_554  A
C235        H238   1.081       .  S
C236        C237   1.382       .  A
C236        C365   1.473       .  S
C237        H239   1.081       .  S
N240        N241   1.322       .  A
N240        C244   1.345       .  A
N241        C242   1.343       .  A
C242        C243   1.382       .  A
C242        H245   1.083       .  S
C243        C244   1.385       .  A
C243        C352   1.477       .  S
C244        H246   1.081       .  S
N247        N248   1.322       .  A
N247        C251   1.344       .  A
N247       Cu255   2.068       .  S
N248        C249   1.342       .  A
N248       Cu254   2.070       .  S
C249        C250   1.385       .  A
C249        H252   1.082       .  S
C250        C251   1.385       .  A
C250        C315   1.480       .  S
C251        H253   1.081       .  S
Cu254       N257   2.070       .  S
Cu255       N265   2.068       .  S
Cu256       N258   2.079       .  S
Cu256       N264   2.080       .  S
N257        N258   1.321       .  A
N257        C261   1.344       .  A
N258        C259   1.346       .  A
C259        C260   1.387       .  A
C259        H262   1.081       .  S
C260        C261   1.386       .  A
C260        C322   1.485       .  S
C261        H263   1.083       .  S
N264        N265   1.321       .  A
N264        C268   1.344       .  A
N265        C266   1.345       .  A
C266        C267   1.386       .  A
C266        H269   1.081       .  S
C267        C268   1.387       .  A
C267        C332   1.484       .  S
C268        H270   1.081       .  S
N271        N272   1.320       .  A
N271        C275   1.341       .  A
N271       Cu279   2.062       .  S
N272        C273   1.344       .  A
N272       Cu278   2.065       .  S
C273        C274   1.387       .  A
C273        H276   1.081       .  S
C274        C275   1.384       .  A
C274        C312   1.480       .  S
C275        H277   1.082       .  S
Cu278       N281   2.065       .  S
Cu279       N289   2.062   1_554  S
Cu280       N282   2.081       .  S
Cu280       N288   2.081       .  S
N281        N282   1.322   1_554  A
N281        C285   1.343       .  A
N282        C283   1.346       .  A
C283        C284   1.387   1_556  A
C283        H286   1.081       .  S
C284        C285   1.383       .  A
C284        C302   1.480       .  S
C285        H287   1.081       .  S
N288        N289   1.320       .  A
N288        C292   1.345       .  A
N289        C290   1.344       .  A
C290        C291   1.386       .  A
C290        H293   1.081       .  S
C291        C292   1.390       .  A
C291        C325   1.488       .  S
C292        H294   1.081       .  S
C295        N296   1.358       .  A
C295        N300   1.358       .  A
C295        C305   1.474       .  S
N296        C297   1.359       .  A
C297        N298   1.360       .  A
C297        C445   1.483       .  S
N298        C299   1.359       .  A
C299        N300   1.357       .  A
C299        C402   1.484       .  S
C301        C302   1.408   1_556  A
C301        C306   1.400       .  A
C301        F308   1.358       .  S
C302        C303   1.408       .  A
C303        C304   1.397       .  A
C303        F310   1.357       .  S
C304        C305   1.404   1_554  A
C304        F309   1.358       .  S
C305        C306   1.406       .  A
C306        F307   1.358       .  S
C311        C312   1.408       .  A
C311        C316   1.398       .  A
C311        F318   1.358       .  S
C312        C313   1.407       .  A
C313        C314   1.395       .  A
C313        F320   1.357       .  S
C314        C315   1.407       .  A
C314        F319   1.357       .  S
C315        C316   1.407       .  A
C316        F317   1.358       .  S
C321        C322   1.407       .  A
C321        C326   1.401       .  A
C321        F328   1.357       .  S
C322        C323   1.407       .  A
C323        C324   1.398       .  A
C323        F330   1.357       .  S
C324        C325   1.408       .  A
C324        F329   1.357       .  S
C325        C326   1.411       .  A
C326        F327   1.357       .  S
C331        C332   1.406       .  A
C331        C336   1.398       .  A
C331        F338   1.357       .  S
C332        C333   1.408       .  A
C333        C334   1.401       .  A
C333        F340   1.358       .  S
C334        C335   1.410       .  A
C334        F339   1.357       .  S
C335        C336   1.409       .  A
C336        F337   1.357       .  S
C341        C342   1.406       .  A
C341        C346   1.399       .  A
C341        F348   1.358       .  S
C342        C343   1.406       .  A
C343        C344   1.397       .  A
C343        F350   1.357       .  S
C344        C345   1.407       .  A
C344        F349   1.357       .  S
C345        C346   1.408       .  A
C346        F347   1.358       .  S
C351        C352   1.404       .  A
C351        C356   1.397       .  A
C351        F358   1.358       .  S
C352        C353   1.406       .  A
C353        C354   1.399       .  A
C353        F360   1.358       .  S
C354        C355   1.408       .  A
C354        F359   1.357       .  S
C355        C356   1.410       .  A
C356        F357   1.357       .  S
C361        C362   1.409   1_554  A
C361        C366   1.396       .  A
C361        F368   1.358       .  S
C362        C363   1.409       .  A
C363        C364   1.400       .  A
C363        F370   1.358       .  S
C364        C365   1.405       .  A
C364        F369   1.358       .  S
C365        C366   1.403   1_556  A
C366        F367   1.358       .  S
C371        C372   1.407       .  A
C371        C376   1.394       .  A
C371        F378   1.358       .  S
C372        C373   1.407   1_554  A
C373        C374   1.401       .  A
C373        F380   1.358       .  S
C374        C375   1.407   1_556  A
C374        F379   1.358       .  S
C375        C376   1.404       .  A
C376        F377   1.358       .  S
C381        C382   1.408       .  A
C381        C386   1.401       .  A
C381        F388   1.357       .  S
C382        C383   1.408       .  A
C383        C384   1.398       .  A
C383        F390   1.357       .  S
C384        C385   1.405       .  A
C384        F389   1.358       .  S
C385        C386   1.407       .  A
C386        F387   1.358       .  S
C391        C392   1.411       .  A
C391        C396   1.402       .  A
C391        F398   1.357       .  S
C392        C393   1.410       .  A
C393        C394   1.399       .  A
C393        F400   1.356       .  S
C394        C395   1.408       .  A
C394        F399   1.357       .  S
C395        C396   1.408       .  A
C396        F397   1.357       .  S
C401        C402   1.408       .  A
C401        C406   1.400       .  A
C401        F408   1.358       .  S
C402        C403   1.410   1_556  A
C403        C404   1.401       .  A
C403        F410   1.358       .  S
C404        C405   1.404   1_554  A
C404        F409   1.358       .  S
C405        C406   1.406       .  A
C406        F407   1.358       .  S
C411        C412   1.406       .  A
C411        C416   1.402       .  A
C411        F418   1.358       .  S
C412        C413   1.406       .  A
C413        C414   1.400       .  A
C413        F420   1.358       .  S
C414        C415   1.409       .  A
C414        F419   1.357       .  S
C415        C416   1.410       .  A
C416        F417   1.357       .  S
C421        C422   1.407       .  A
C421        C426   1.399       .  A
C421        F428   1.357       .  S
C422        C423   1.407       .  A
C423        C424   1.401       .  A
C423        F430   1.358       .  S
C424        C425   1.409       .  A
C424        F429   1.357       .  S
C425        C426   1.408       .  A
C426        F427   1.357       .  S
C431        C432   1.407       .  A
C431        C436   1.399       .  A
C431        F438   1.357       .  S
C432        C433   1.410       .  A
C433        C434   1.403       .  A
C433        F440   1.358       .  S
C434        C435   1.408       .  A
C434        F439   1.357       .  S
C435        C436   1.409       .  A
C436        F437   1.357       .  S
C441        C442   1.403   1_554  A
C441        C446   1.400       .  A
C441        F448   1.358       .  S
C442        C443   1.404       .  A
C443        C444   1.397       .  A
C443        F450   1.358       .  S
C444        C445   1.408       .  A
C444        F449   1.357       .  S
C445        C446   1.411   1_556  A
C446        F447   1.358       .  S
C451        C452   1.407       .  A
C451        C456   1.397       .  A
C451        F458   1.357       .  S
C452        C453   1.407       .  A
C453        C454   1.396       .  A
C453        F460   1.358       .  S
C454        C455   1.407       .  A
C454        F459   1.357       .  S
C455        C456   1.406       .  A
C456        F457   1.358       .  S
C461        C462   1.404       .  A
C461        C466   1.396       .  A
C461        F468   1.358       .  S
C462        C463   1.406       .  A
C463        C464   1.398       .  A
C463        F470   1.358       .  S
C464        C465   1.405       .  A
C464        F469   1.358       .  S
C465        C466   1.408       .  A
C466        F467   1.358       .  S
C471        C472   1.407       .  A
C471        C476   1.397       .  A
C471        F478   1.358       .  S
C472        C473   1.406   1_554  A
C473        C474   1.398       .  A
C473        F480   1.358       .  S
C474        C475   1.407   1_556  A
C474        F479   1.358       .  S
C475        C476   1.407       .  A
C476        F477   1.358       .  S
C481        C482   1.407       .  A
C481        C486   1.399   1_455  A
C481        F488   1.358       .  S
C482        C483   1.407       .  A
C483        C484   1.394   1_455  A
C483        F490   1.357       .  S
C484        C485   1.405       .  A
C484        F489   1.357       .  S
C485        C486   1.407       .  A
C486        F487   1.358       .  S
C491        C492   1.407       .  A
C491        C496   1.398       .  A
C491        F498   1.357       .  S
C492        C493   1.407       .  A
C493        C494   1.397       .  A
C493        F500   1.357       .  S
C494        C495   1.410       .  A
C494        F499   1.356       .  S
C495        C496   1.411       .  A
C496        F497   1.356       .  S
C501        C502   1.409       .  A
C501        C506   1.397       .  A
C501        F508   1.356       .  S
C502        C503   1.410       .  A
C503        C504   1.398       .  A
C503        F510   1.357       .  S
C504        C505   1.406       .  A
C504        F509   1.357       .  S
C505        C506   1.407       .  A
C506        F507   1.357       .  S
