geometry optimzed in LAMMPS
_audit_creation_date              2020-12-01 
_audit_creation_method            'lammps2cif' 
_symmetry_space_group_name_H-M    'P1' 
_symmetry_Int_Tables_number       1 
_symmetry_cell_setting            triclinic 
loop_ 
_symmetry_equiv_pos_as_xyz 
  x,y,z 
_cell_length_a                    27.30710511 
_cell_length_b                    28.817097855981608 
_cell_length_c                    30.98113085907964 
_cell_angle_alpha                 89.99618222148413 
_cell_angle_beta                  90.7595796899323 
_cell_angle_gamma                 90.21934349166388 
loop_ 
_atom_site_label 
_atom_site_type_symbol 
_atom_site_fract_x 
_atom_site_fract_y 
_atom_site_fract_z 
_atom_site_charge 
N1          N  0.97677095  0.57344477  0.00005231    -0.36500
N2          N  0.48610218  0.50226271  0.06760862    -0.57000
N3          N  0.49263215  0.42761146  0.49875726    -0.36500
N4          N  0.49593115  0.50133842  0.43243308    -0.57000
C5          C  0.98578581  0.60101023  0.03495081     0.27100
C6          C  0.00018234  0.60066603  0.46474366     0.27100
C7          C  0.49219094  0.40230214  0.03780795     0.27100
C8          C  0.49621246  0.40092396  0.46268728     0.27100
C9          C  0.98174699  0.54017948  0.09312348     0.35700
C10         C  0.48597925  0.46488328  0.09428234     0.35700
C11         C  0.99408040  0.53955217  0.40671490     0.35700
C12         C  0.49064014  0.46402524  0.40609091     0.35700
C13         C  0.99705921  0.64530256  0.02052277    -0.21800
C14         C  0.00780897  0.64579312  0.47897769    -0.21800
C15         C  0.50306227  0.35757988  0.02447386    -0.21800
C16         C  0.50320496  0.35524385  0.47546479    -0.21800
C17         C  0.97884295  0.52665433  0.13600572    -0.22800
C18         C  0.48188114  0.47947303  0.13675428    -0.22800
C19         C  0.98839532  0.52620967  0.36392160    -0.22800
C20         C  0.48564913  0.47878506  0.36360964    -0.22800
C21         C  0.98381770  0.58728291  0.07935429    -0.18200
C22         C  0.99973871  0.58642875  0.42040204    -0.18200
C23         C  0.49290712  0.41651518  0.41865555    -0.18200
C24         C  0.49240630  0.41776737  0.08182101    -0.18200
H25         H  0.00570594  0.67534516  0.04019729     0.14700
H26         H  0.01495916  0.67602756  0.45927640     0.14700
H27         H  0.51351080  0.32859519  0.04476931     0.14700
H28         H  0.50708095  0.32534956  0.45465859     0.14700
H29         H  0.97566796  0.54855309  0.16419877     0.13000
H30         H  0.48175602  0.45843388  0.16567159     0.13000
H31         H  0.98643572  0.54815371  0.33562070     0.13000
H32         H  0.48111977  0.45771003  0.33491471     0.13000
H33         H  0.96306471  0.53988442  0.00113899     0.26300
H34         H  0.48390801  0.46242425  0.49904064     0.26300
C35         C  0.04408427  0.24807015  0.21595020     0.45600
H36         H  0.06955158  0.25215645  0.18880019    -0.03400
C37         C  0.48687299  0.24387644  0.28162175     0.45600
H38         H  0.46200926  0.24282732  0.30960960    -0.03400
C39         C  0.49719370  0.22055216  0.20622014    -0.17100
C40         C  0.06709359  0.22167564  0.25503503    -0.16900
C41         C  0.02585913  0.29599371  0.23089040    -0.17300
C42         C  0.46693649  0.21690100  0.24168080    -0.17200
C43         C  0.03680275  0.22134151  0.29047696    -0.16800
C44         C  0.49838968  0.29377512  0.26802004    -0.17100
O45         O  0.20580114  0.94734481  0.28460635    -0.72800
O46         O  0.30966833  0.04905132  0.29358162    -0.73800
O47         O  0.20721165  0.04745794  0.28091798    -0.62400
O48         O  0.30851351  0.94869709  0.29997046    -0.70800
O49         O  0.31831601  0.94217382  0.22920081    -0.70400
O50         O  0.21951602  0.04649091  0.21027996    -0.61600
O51         O  0.32215188  0.04150022  0.22329098    -0.74100
O52         O  0.21615728  0.94536166  0.21368176    -0.72900
Cu53       Cu  0.25738504  0.99823817  0.29221834     1.04600
Cu54       Cu  0.26934471  0.99372334  0.21663617     1.04300
C55         C  0.19555570  0.92986867  0.24750768     0.93400
C56         C  0.33171294  0.06149141  0.25918203     0.92500
C57         C  0.19859626  0.06389271  0.24334773     0.84700
C58         C  0.32843515  0.92901693  0.26780439     0.90900
C59         C  0.05031729  0.74897690  0.27528593     0.45600
H60         H  0.08512853  0.74606518  0.29388729    -0.03400
C61         C  0.47105027  0.75353012  0.22998140     0.45600
H62         H  0.43607393  0.75312570  0.21187401    -0.03400
C63         C  0.51035041  0.77472777  0.29891125    -0.17100
C64         C  0.05588520  0.77764012  0.23287870    -0.16900
C65         C  0.02746957  0.70094488  0.26558942    -0.17300
C66         C  0.46726029  0.77755403  0.27510840    -0.17200
C67         C  0.01290927  0.77993462  0.20866739    -0.16800
C68         C  0.49045508  0.70357622  0.23534496    -0.17100
N69         N  0.46885609  0.00132541  0.06495270    -0.36500
N70         N  0.55378059  0.92898729  0.50548844    -0.57000
N71         N  0.55703553  0.99630849  0.43581840    -0.36500
N72         N  0.53758799  0.06869570  0.49735515    -0.57000
C73         C  0.49028498  0.96651036  0.08739479     0.27100
C74         C  0.47646612  0.04082278  0.08749859     0.27100
C75         C  0.54662637  0.95733965  0.41319920     0.27100
C76         C  0.54950243  0.03253386  0.40901341     0.27100
C77         C  0.47031517  0.90258194  0.03649688     0.36500
C78         C  0.56105833  0.90025563  0.47201371     0.35700
C79         C  0.44898513  0.09667344  0.03136351     0.35700
C80         C  0.55020385  0.09555615  0.46366392     0.35700
C81         C  0.51050565  0.98373976  0.12541900    -0.21800
C82         C  0.50159117  0.03067606  0.12562319    -0.21800
C83         C  0.53376781  0.96890740  0.37107674    -0.21800
C84         C  0.53632569  0.01643149  0.36824450    -0.21800
C85         C  0.45808292  0.85672313  0.02800118    -0.22800
C86         C  0.57356581  0.85636819  0.48640567    -0.22800
C87         C  0.43766912  0.14091290  0.01660972    -0.22800
C88         C  0.55142910  0.14193035  0.47579624    -0.22800
C89         C  0.48845292  0.91914049  0.07613145    -0.18200
C90         C  0.46114179  0.08557801  0.07432102    -0.18200
C91         C  0.55311618  0.07971672  0.42084931    -0.18200
C92         C  0.55077778  0.91154696  0.42891242    -0.18200
H93         H  0.52922320  0.96440863  0.15061646     0.14700
H94         H  0.51271555  0.05444250  0.15097757     0.14700
H95         H  0.52395110  0.94555913  0.34496127     0.14700
H96         H  0.52811583  0.03673171  0.33968160     0.14700
H97         H  0.45949021  0.82747569  0.04990142     0.13000
H98         H  0.58016382  0.82569517  0.46719687     0.13000
H99         H  0.43230100  0.17207189  0.03540301     0.13000
H100        H  0.55846980  0.17194544  0.45581317     0.13000
H101        H  0.44582241  0.99782819  0.03821428     0.26300
H102        H  0.57231993  0.99831010  0.46662906     0.26300
C103        C  0.45835690  0.87349138  0.13546815    -0.26200
C104        C  0.99772656  0.88447478  0.10983719    -0.14300
C105        C  0.04088472  0.85774104  0.11256078     0.36400
C106        C  0.04392564  0.82220760  0.14344243    -0.25600
C107        C  0.00489633  0.81283932  0.17156212    -0.14900
C108        C  0.46072766  0.83768878  0.16529097     0.37500
N109        N  0.41711005  0.82757737  0.18821184    -0.89100
H110        H  0.42430907  0.89242491  0.13139713     0.18600
H111        H  0.07740583  0.80227944  0.14592589     0.18600
N112        N  0.08203967  0.86583813  0.08507367    -0.88200
H113        H  0.40449739  0.85863420  0.20123014     0.35900
H114        H  0.39057150  0.81630428  0.16589960     0.41000
H115        H  0.07585546  0.89377213  0.06427815     0.40700
H116        H  0.08612950  0.83643253  0.06570585     0.35500
C117        C  0.49949771  0.84712756  0.40052923    -0.26200
C118        C  0.54325177  0.87280402  0.39858391    -0.14300
C119        C  0.07908984  0.86098243  0.36853697     0.36400
C120        C  0.06860536  0.82640710  0.33860182    -0.25600
C121        C  0.52308316  0.80347744  0.33739740    -0.14900
C122        C  0.48950613  0.81165433  0.37061778     0.37500
N123        N  0.44549091  0.78439734  0.37343683    -0.89100
H124        H  0.47299516  0.85527159  0.42510452     0.18600
H125        H  0.09651916  0.81889240  0.31549385     0.18600
N126        N  0.12647504  0.88299146  0.36741695    -0.88200
H127        H  0.42482800  0.79484619  0.39986233     0.35900
H128        H  0.45586331  0.75004869  0.37924965     0.41000
H129        H  0.13152396  0.90690317  0.39236650     0.40700
H130        H  0.12866331  0.90143959  0.33847866     0.35500
C131        C  0.17725311  0.84549833  0.23723444    -0.26200
C132        C  0.16016042  0.89098222  0.24322999    -0.14300
C133        C  0.10951342  0.89913457  0.24276519     0.36400
C134        C  0.07695155  0.86194923  0.23634488    -0.25600
C135        C  0.09341478  0.81596466  0.23192452    -0.14900
C136        C  0.14459074  0.80779464  0.23207370     0.37500
N137        N  0.16471723  0.76212258  0.22710258    -0.89100
H138        H  0.21634377  0.83915015  0.23698809     0.18600
H139        H  0.03816900  0.86885624  0.23608760     0.18600
N140        N  0.09122458  0.94521372  0.24895492    -0.88200
H141        H  0.18492608  0.76204932  0.19867226     0.35900
H142        H  0.13720837  0.73728202  0.22292160     0.41000
H143        H  0.10020749  0.95500510  0.28056279     0.40700
H144        H  0.05299210  0.94564627  0.24664414     0.35500
C145        C  0.34645678  0.84469980  0.27447961    -0.26200
C146        C  0.36352939  0.89078168  0.27550955    -0.14300
C147        C  0.41397681  0.89922803  0.28263572     0.36400
C148        C  0.44620648  0.86159102  0.28561440    -0.25600
C149        C  0.42997105  0.81521431  0.28170231    -0.14900
C150        C  0.37885849  0.80684681  0.27781176     0.37500
N151        N  0.35864590  0.76074324  0.27577092    -0.89100
H152        H  0.30764671  0.83801399  0.26991598     0.18600
H153        H  0.48471567  0.86923812  0.28926954     0.18600
N154        N  0.43417767  0.94530687  0.28581182    -0.88200
H155        H  0.33529806  0.75688384  0.30201378     0.35900
H156        H  0.38574769  0.73566811  0.27981384     0.41000
H157        H  0.40717193  0.97074911  0.28382472     0.40700
H158        H  0.45711564  0.95023805  0.25943252     0.35500
C159        C  0.01681788  0.13912117  0.11149147    -0.26200
C160        C  0.46900803  0.12471901  0.10408237    -0.14300
C161        C  0.43001790  0.14848037  0.12317007     0.36400
C162        C  0.44066494  0.18523211  0.15143713    -0.25600
C163        C  0.48919227  0.19430380  0.16506733    -0.14900
C164        C  0.02773493  0.17224906  0.14281236     0.37500
N165        N  0.07818551  0.18100787  0.15265446    -0.89100
H166        H  0.04650870  0.12200277  0.09496276     0.18600
H167        H  0.41075430  0.20367270  0.16624723     0.18600
N168        N  0.38030457  0.13345611  0.11594052    -0.88200
H169        H  0.09482351  0.19361222  0.12477978     0.35900
H170        H  0.09479224  0.14943401  0.16055844     0.41000
H171        H  0.37104304  0.13968034  0.08366709     0.40700
H172        H  0.35628484  0.15323554  0.13435637     0.35500
C173        C  0.50059222  0.16287216  0.33955410    -0.26200
C174        C  0.04226256  0.18895673  0.32785154    -0.14300
C175        C  0.08768010  0.17965578  0.34876640     0.36400
C176        C  0.09104051  0.14182691  0.37699151    -0.25600
C177        C  0.04954131  0.11529302  0.38702525    -0.14900
C178        C  0.50321083  0.12716019  0.36932660     0.37500
N179        N  0.45830000  0.10388524  0.38047270    -0.89100
H180        H  0.46516864  0.16901025  0.32521362     0.18600
H181        H  0.12579386  0.13425123  0.39272060     0.18600
N182        N  0.13026022  0.20848110  0.34362457    -0.88200
H183        H  0.43532146  0.12846873  0.39443672     0.35900
H184        H  0.46350971  0.07816103  0.40369637     0.41000
H185        H  0.12279189  0.23752340  0.32461310     0.40700
H186        H  0.15702526  0.18888797  0.32824372     0.35500
C187        C  0.44504356  0.13223916  0.23588927    -0.26200
C188        C  0.43085468  0.17758659  0.24736953    -0.14300
C189        C  0.38433443  0.18350010  0.26652035     0.36400
C190        C  0.35385011  0.14456205  0.27309994    -0.25600
C191        C  0.36776233  0.10001894  0.25961550    -0.14900
C192        C  0.41377400  0.09409565  0.24085450     0.37500
N193        N  0.42876225  0.04919612  0.22637636    -0.89100
H194        H  0.48017434  0.12615205  0.22145399     0.18600
H195        H  0.31779770  0.14961091  0.28650082     0.18600
N196        N  0.36557374  0.22840235  0.27751904    -0.88200
H197        H  0.46186984  0.04098549  0.24186012     0.35900
H198        H  0.43513574  0.05129801  0.19325951     0.41000
H199        H  0.38794961  0.25509813  0.26633817     0.40700
H200        H  0.36484379  0.23060917  0.31118396     0.35500
C201        C  0.08438479  0.13654602  0.25319228    -0.26200
C202        C  0.10198611  0.18207456  0.24753306    -0.14300
C203        C  0.15140828  0.18798574  0.23484473     0.36400
C204        C  0.18185933  0.14859482  0.23083597    -0.25600
C205        C  0.16423159  0.10356314  0.23939608    -0.14900
C206        C  0.11471645  0.09799421  0.25027618     0.37500
N207        N  0.09408202  0.05330728  0.25873736    -0.89100
H208        H  0.04682995  0.13067768  0.26195331     0.18600
H209        H  0.22010011  0.15343083  0.22298895     0.18600
N210        N  0.17250350  0.23303681  0.22764732    -0.88200
H211        H  0.11262043  0.03868971  0.28509878     0.35900
H212        H  0.09957246  0.03270424  0.23150316     0.41000
H213        H  0.14738924  0.25947568  0.23329592     0.40700
H214        H  0.18171588  0.23501524  0.19505146     0.35500
C215        C  0.05655277  0.34703308  0.17112120    -0.26200
C216        C  0.01685096  0.33146404  0.19586451    -0.14300
C217        C  0.46873330  0.34172897  0.18074762     0.36400
C218        C  0.46157543  0.36757614  0.14244794    -0.25600
C219        C  0.00152148  0.38359014  0.11814376    -0.14900
C220        C  0.04946065  0.37336546  0.13294083     0.37500
N221        N  0.09081470  0.38965840  0.10898405    -0.89100
H222        H  0.09338517  0.33805333  0.18143156     0.18600
H223        H  0.42461897  0.37583020  0.13193938     0.18600
N224        N  0.42700601  0.32444322  0.20327285    -0.88200
H225        H  0.12350108  0.37866791  0.12358420     0.35900
H226        H  0.09096677  0.42590356  0.11044607     0.41000
H227        H  0.40664675  0.30346222  0.18208688     0.40700
H228        H  0.40531968  0.35269884  0.21188472     0.35500
C229        C  0.45251042  0.33590071  0.32571819    -0.26200
C230        C  0.49620870  0.33076693  0.30249181    -0.14300
C231        C  0.03918474  0.35239363  0.31946032     0.36400
C232        C  0.03741583  0.37735226  0.35849340    -0.25600
C233        C  0.49384776  0.38197092  0.38194310    -0.14900
C234        C  0.45056774  0.36139858  0.36459798     0.37500
N235        N  0.40401326  0.36556795  0.38535925    -0.89100
H236        H  0.41943162  0.31903557  0.31393857     0.18600
H237        H  0.07043367  0.39426995  0.37040464     0.18600
N238        N  0.08549148  0.34883626  0.29860508    -0.88200
H239        H  0.38098925  0.38461144  0.36482487     0.35900
H240        H  0.40685906  0.38409362  0.41422134     0.41000
H241        H  0.08228300  0.36334560  0.26780168     0.40700
H242        H  0.09465672  0.31382289  0.29580560     0.35500
C243        C  0.03065818  0.62823567  0.13855012    -0.26200
C244        C  0.48658547  0.62318166  0.11486844    -0.14300
C245        C  0.44392109  0.64379458  0.13133864     0.36400
C246        C  0.44594778  0.66813038  0.17109185    -0.25600
C247        C  0.48989608  0.67300153  0.19521425    -0.14900
C248        C  0.03276258  0.65283615  0.17795616     0.37500
N249        N  0.07902595  0.65734615  0.19979383    -0.89100
H250        H  0.06347296  0.61155995  0.12696290     0.18600
H251        H  0.41262117  0.68297114  0.18352059     0.18600
N252        N  0.39821902  0.63839064  0.10835570    -0.88200
H253        H  0.10349861  0.67327391  0.17871598     0.35900
H254        H  0.09206256  0.62405104  0.20666581     0.41000
H255        H  0.40155250  0.65542540  0.07873478     0.40700
H256        H  0.37004579  0.65497844  0.12479739     0.35500
C257        C  0.47416729  0.66266445  0.32155978    -0.26200
C258        C  0.02112654  0.66948124  0.30454133    -0.14300
C259        C  0.06153228  0.65191484  0.32884952     0.36400
C260        C  0.05355005  0.62881257  0.36841370    -0.25600
C261        C  0.00630530  0.62167223  0.38477652    -0.14900
C262        C  0.46634206  0.63942346  0.36092680     0.37500
N263        N  0.41668925  0.63340068  0.37487247    -0.89100
H264        H  0.44256293  0.67640700  0.30453136     0.18600
H265        H  0.08464989  0.61418826  0.38564597     0.18600
N266        N  0.11111407  0.65564647  0.31410040    -0.88200
H267        H  0.40205736  0.66642599  0.37980694     0.35900
H268        H  0.41517532  0.61641668  0.40457458     0.41000
H269        H  0.11263919  0.67034227  0.28340214     0.40700
H270        H  0.12462892  0.62195880  0.31073310     0.35500
N271        N  0.99174999  0.57321340  0.49965950    -0.36500
N272        N  0.49403971  0.49959408  0.56616599    -0.57000
N273        N  0.47996140  0.42794156  0.00238851    -0.36500
N274        N  0.47506643  0.49919804  0.93474054    -0.57000
C275        C  0.99497030  0.59985450  0.53579540     0.27100
C276        C  0.98363598  0.59907782  0.96368034     0.27100
C277        C  0.49843030  0.40002759  0.53418964     0.27100
C278        C  0.48417390  0.40064723  0.96674637     0.27100
C279        C  0.98889060  0.53696385  0.59226848     0.35700
C280        C  0.49328054  0.46158667  0.59203124     0.35700
C281        C  0.96802068  0.53637137  0.90877402     0.35700
C282        C  0.46649326  0.46102847  0.91013504     0.35700
C283        C  0.00430817  0.64532301  0.52356749    -0.21800
C284        C  0.99594686  0.64403627  0.97576887    -0.21800
C285        C  0.50466329  0.35469166  0.52027282    -0.21800
C286        C  0.49803926  0.35655290  0.97987718    -0.21800
C287        C  0.98570302  0.52247713  0.63485044    -0.22800
C288        C  0.48882465  0.47528662  0.63475288    -0.22800
C289        C  0.95462288  0.52168684  0.86764702    -0.22800
C290        C  0.45329060  0.47431586  0.86855240    -0.22800
C291        C  0.98954227  0.58440025  0.57942051    -0.18200
C292        C  0.97738916  0.58338134  0.92002881    -0.18200
C293        C  0.47466827  0.41425845  0.92290681    -0.18200
C294        C  0.49740567  0.41445414  0.57861366    -0.18200
H295        H  0.00866706  0.67506544  0.54462293     0.14700
H296        H  0.00316676  0.67303556  0.95454973     0.14700
H297        H  0.50977409  0.32428363  0.54031350     0.14700
H298        H  0.50392716  0.32667836  0.95944897     0.14700
H299        H  0.98224796  0.54370022  0.66345657     0.13000
H300        H  0.48789554  0.45365857  0.66327417     0.13000
H301        H  0.94718437  0.54281285  0.83946757     0.13000
H302        H  0.44480970  0.45216541  0.84123119     0.13000
H303        H  0.98078645  0.53886503  0.49884564     0.26300
H304        H  0.46586958  0.46124407  0.00278643     0.26300
C305        C  0.03125933  0.25024489  0.72717517     0.45600
H306        H  0.06537414  0.25491524  0.70913889    -0.03400
C307        C  0.45464734  0.24716141  0.77398646     0.45600
H308        H  0.42093275  0.24634435  0.79331801    -0.03400
C309        C  0.49051138  0.22172727  0.70535363    -0.17100
C310        C  0.03945808  0.22423306  0.77090829    -0.16900
C311        C  0.00824060  0.29835723  0.73491776    -0.17300
C312        C  0.44857639  0.22004769  0.73039315    -0.17200
C313        C  0.99772718  0.22304537  0.79570033    -0.16800
C314        C  0.47295369  0.29727056  0.76604358    -0.17100
O315        O  0.19615064  0.95207978  0.79999044    -0.72800
O316        O  0.29830624  0.05425520  0.78322880    -0.73800
O317        O  0.19619999  0.05339017  0.79757034    -0.62400
O318        O  0.29860471  0.95421327  0.78721054    -0.70800
O319        O  0.28423517  0.94864730  0.71670978    -0.70400
O320        O  0.18485772  0.05245112  0.72647411    -0.61600
O321        O  0.28709672  0.04912897  0.71229719    -0.74100
O322        O  0.18189998  0.95261075  0.72931542    -0.72900
Cu323      Cu  0.24772447  0.00358044  0.79449753     1.04600
Cu324      Cu  0.23407324  0.00063361  0.71877631     1.04300
C325        C  0.17366641  0.93578868  0.76667694     0.93400
C326        C  0.30809302  0.06802145  0.74496594     0.92500
C327        C  0.17559067  0.06962908  0.76357702     0.84700
C328        C  0.30668436  0.93490342  0.75089797     0.90900
C329        C  0.01967682  0.74946557  0.78562987     0.45600
H330        H  0.04566183  0.74663143  0.81334757    -0.03400
C331        C  0.46065661  0.75390724  0.71976756     0.45600
H332        H  0.43467574  0.75389348  0.69209549    -0.03400
C333        C  0.47112131  0.77303635  0.79594942    -0.17100
C334        C  0.04005302  0.77917675  0.74823170    -0.16900
C335        C  0.00498365  0.70145192  0.76842762    -0.17300
C336        C  0.43989751  0.77734713  0.76072900    -0.17200
C337        C  0.00894247  0.78006239  0.71256989    -0.16800
C338        C  0.47607247  0.70397651  0.73138120    -0.17100
N339        N  0.53809872  0.00139143  0.56707202    -0.36500
N340        N  0.46542784  0.92859744  0.00071059    -0.57000
N341        N  0.45052040  0.99531625  0.93327730    -0.36500
N342        N  0.45648546  0.06799006  0.99786071    -0.57000
C343        C  0.53333382  0.96403383  0.59304420     0.27100
C344        C  0.51786092  0.03790060  0.58749536     0.27100
C345        C  0.45738833  0.95646289  0.90995995     0.27100
C346        C  0.46424368  0.03149287  0.90845665     0.27100
C347        C  0.56088723  0.90348583  0.54138195     0.36500
C348        C  0.45011655  0.89951386  0.96934491     0.35700
C349        C  0.53129915  0.09775981  0.53085672     0.35700
C350        C  0.45060063  0.09379548  0.96205707     0.35700
C351        C  0.51157974  0.97749411  0.63134487    -0.21800
C352        C  0.50152785  0.02402296  0.62764303    -0.21800
C353        C  0.47334267  0.96812736  0.86898520    -0.21800
C354        C  0.47815358  0.01561412  0.86821025    -0.21800
C355        C  0.57343552  0.85833012  0.53042785    -0.22800
C356        C  0.44497085  0.85480089  0.98539121    -0.22800
C357        C  0.53924957  0.14331464  0.51834843    -0.22800
C358        C  0.43867562  0.13903043  0.97258556    -0.22800
C359        C  0.54812771  0.91820119  0.58305936    -0.18200
C360        C  0.51713114  0.08412591  0.57240599    -0.18200
C361        C  0.46198581  0.07855837  0.92048736    -0.18200
C362        C  0.45074618  0.91085392  0.92539450    -0.18200
H363        H  0.50365547  0.95620483  0.65918143     0.14700
H364        H  0.48472567  0.04542406  0.65194145     0.14700
H365        H  0.48191649  0.94491001  0.84272708     0.14700
H366        H  0.49023324  0.03611511  0.84106962     0.14700
H367        H  0.57916291  0.82893937  0.55153190     0.13000
H368        H  0.43544622  0.82350857  0.96786256     0.13000
H369        H  0.53611672  0.17441804  0.53768902     0.13000
H370        H  0.43329402  0.16806510  0.95088336     0.13000
H371        H  0.55840862  0.00276476  0.53909494     0.26300
H372        H  0.43380428  0.99688474  0.96317756     0.26300
C373        C  0.49111908  0.86988818  0.62348399    -0.26200
C374        C  0.03993178  0.88129169  0.61518436    -0.14300
C375        C  0.07811655  0.85504969  0.63412411     0.36400
C376        C  0.06614637  0.81815641  0.66130286    -0.25600
C377        C  0.01751051  0.81030962  0.67413161    -0.14900
C378        C  0.47941619  0.83617819  0.65376998     0.37500
N379        N  0.42904624  0.83044209  0.66447230    -0.89100
H380        H  0.46176878  0.88892067  0.60763295     0.18600
H381        H  0.09563085  0.79772199  0.67516483     0.18600
N382        N  0.12901217  0.86541502  0.62744027    -0.88200
H383        H  0.41555899  0.86264218  0.67423336     0.35900
H384        H  0.40979543  0.82061871  0.63652180     0.41000
H385        H  0.13360693  0.89473402  0.60812328     0.40700
H386        H  0.14435899  0.83739297  0.61108212     0.35500
C387        C  0.41570161  0.84569380  0.88333278    -0.26200
C388        C  0.45681609  0.87209860  0.89544798    -0.14300
C389        C  0.00365264  0.85930593  0.88166892     0.36400
C390        C  0.00776901  0.82385485  0.85188834    -0.25600
C391        C  0.46640222  0.80001586  0.83626117    -0.14900
C392        C  0.42042888  0.80833286  0.85486991     0.37500
N393        N  0.37869562  0.78029441  0.84318658    -0.89100
H394        H  0.38014791  0.85433057  0.89615781     0.18600
H395        H  0.04379114  0.81733118  0.83946079     0.18600
N396        N  0.04794321  0.88182467  0.89651930    -0.88200
H397        H  0.34760424  0.79138349  0.85953601     0.35900
H398        H  0.38587939  0.74648472  0.85354902     0.41000
H399        H  0.04163734  0.90647243  0.92041618     0.40700
H400        H  0.06311969  0.89928087  0.87025922     0.35500
C401        C  0.15563581  0.85114786  0.77743054    -0.26200
C402        C  0.13848995  0.89647772  0.77003279    -0.14300
C403        C  0.08912163  0.90274257  0.75835012     0.36400
C404        C  0.05866509  0.86411197  0.75206089    -0.25600
C405        C  0.07556275  0.81841128  0.75752247    -0.14900
C406        C  0.12492860  0.81199154  0.77116658     0.37500
N407        N  0.14585205  0.76671213  0.77696507    -0.89100
H408        H  0.19388324  0.84594355  0.78581174     0.18600
H409        H  0.02174591  0.86993977  0.74083276     0.18600
N410        N  0.07000140  0.94859987  0.75266500    -0.88200
H411        H  0.17423510  0.76337926  0.75486773     0.35900
H412        H  0.12062688  0.74072862  0.76920218     0.41000
H413        H  0.07015197  0.96397035  0.78323146     0.40700
H414        H  0.03339019  0.94747969  0.74240211     0.35500
C415        C  0.32510750  0.85140546  0.73773784    -0.26200
C416        C  0.34194297  0.89597988  0.74933034    -0.14300
C417        C  0.39080927  0.90134690  0.76399547     0.36400
C418        C  0.42086010  0.86232325  0.76736677    -0.25600
C419        C  0.40436287  0.81726551  0.75671989    -0.14900
C420        C  0.35534700  0.81194193  0.74179094     0.37500
N421        N  0.33448444  0.76726438  0.73183873    -0.89100
H422        H  0.28736474  0.84687605  0.72724435     0.18600
H423        H  0.45745783  0.86758186  0.77972437     0.18600
N424        N  0.41145268  0.94564573  0.77591243    -0.88200
H425        H  0.30567730  0.76164449  0.75314745     0.35900
H426        H  0.35946286  0.74058504  0.73753827     0.41000
H427        H  0.38676563  0.97269197  0.77113372     0.40700
H428        H  0.44063927  0.95231717  0.75527537     0.35500
C429        C  0.04971673  0.13667667  0.62722783    -0.26200
C430        C  0.50895059  0.12132198  0.60403261    -0.14300
C431        C  0.46372090  0.14376723  0.60851911     0.36400
C432        C  0.45963291  0.17957413  0.63914726    -0.25600
C433        C  0.49951019  0.19191170  0.66630010    -0.14900
C434        C  0.04601804  0.17199721  0.65747493     0.37500
N435        N  0.09042217  0.18680206  0.67813918    -0.89100
H436        H  0.08512540  0.12095984  0.62164205     0.18600
H437        H  0.42465123  0.19651394  0.64307472     0.18600
N438        N  0.42217294  0.12933363  0.58288559    -0.88200
H439        H  0.11308871  0.20094561  0.65455022     0.35900
H440        H  0.10828506  0.15759486  0.69045847     0.41000
H441        H  0.42986266  0.13672352  0.55063730     0.40700
H442        H  0.39134583  0.14883949  0.59076402     0.35500
C443        C  0.44430286  0.16419582  0.83044958    -0.26200
C444        C  0.98857809  0.18903801  0.83126840    -0.14300
C445        C  0.02359753  0.17811492  0.86381633     0.36400
C446        C  0.01492858  0.14018178  0.89096818    -0.25600
C447        C  0.97113456  0.11457332  0.88791857    -0.14900
C448        C  0.43497314  0.12758108  0.85815729     0.37500
N449        N  0.38786945  0.10502836  0.85511637    -0.89100
H450        H  0.41547587  0.17248713  0.80804845     0.18600
H451        H  0.04174245  0.13160818  0.91579697     0.18600
N452        N  0.06650546  0.20593508  0.87201482    -0.88200
H453        H  0.36127795  0.12958985  0.86280743     0.35900
H454        H  0.38419040  0.07811469  0.87732927     0.41000
H455        H  0.06706996  0.23569970  0.85285945     0.40700
H456        H  0.09722414  0.18599910  0.86479309     0.35500
C457        C  0.42508818  0.13544540  0.72335804    -0.26200
C458        C  0.40996453  0.18212818  0.72708023    -0.14300
C459        C  0.35956792  0.19045281  0.73518222     0.36400
C460        C  0.32715220  0.15274643  0.74057217    -0.25600
C461        C  0.34327688  0.10665475  0.73821569    -0.14900
C462        C  0.39253518  0.09797154  0.72879061     0.37500
N463        N  0.40972728  0.05100687  0.72626588    -0.89100
H464        H  0.46283104  0.12768440  0.71697204     0.18600
H465        H  0.28893438  0.15957532  0.74701291     0.18600
N466        N  0.33970920  0.23641346  0.73803165    -0.88200
H467        H  0.44755007  0.05026861  0.72159299     0.35900
H468        H  0.39335433  0.03567232  0.69908250     0.41000
H469        H  0.36609469  0.26159718  0.73185980     0.40700
H470        H  0.32817694  0.24140136  0.76973510     0.35500
C471        C  0.05838532  0.13981082  0.76800168    -0.26200
C472        C  0.07603659  0.18537744  0.77308538    -0.14300
C473        C  0.12745830  0.19236753  0.77585118     0.36400
C474        C  0.15895646  0.15374962  0.77432305    -0.25600
C475        C  0.14074756  0.10864362  0.76726490    -0.14900
C476        C  0.08964868  0.10195697  0.76342073     0.37500
N477        N  0.06799332  0.05780508  0.75326145    -0.89100
H478        H  0.01956450  0.13357190  0.76596212     0.18600
H479        H  0.19815830  0.15924534  0.77713441     0.18600
N480        N  0.14905347  0.23764088  0.78030166    -0.88200
H481        H  0.04789463  0.04716344  0.77999382     0.35900
H482        H  0.09465691  0.03289009  0.74777437     0.41000
H483        H  0.12234264  0.26324026  0.78146477     0.40700
H484        H  0.16942278  0.24402619  0.75256620     0.35500
C485        C  0.04728182  0.34185032  0.67311719    -0.26200
C486        C  0.00435094  0.32986671  0.69548844    -0.14300
C487        C  0.45923396  0.34241061  0.67621831     0.36400
C488        C  0.45775467  0.36637575  0.63640641    -0.25600
C489        C  0.00023802  0.37908881  0.61465923    -0.14900
C490        C  0.04575607  0.36665917  0.63353508     0.37500
N491        N  0.09039595  0.37982059  0.61266906    -0.89100
H492        H  0.08245659  0.33221041  0.68689046     0.18600
H493        H  0.42260491  0.37674149  0.62301070     0.18600
N494        N  0.41407368  0.33047206  0.69629256    -0.88200
H495        H  0.12073666  0.36772833  0.63019678     0.35900
H496        H  0.09264594  0.41604246  0.61308174     0.41000
H497        H  0.39350760  0.31052921  0.67439837     0.40700
H498        H  0.39487113  0.36111102  0.70210201     0.35500
C499        C  0.43336647  0.33044352  0.83290935    -0.26200
C500        C  0.47434828  0.32971643  0.80540276    -0.14300
C501        C  0.01634832  0.35540670  0.81953808     0.36400
C502        C  0.01647170  0.37908543  0.85934257    -0.25600
C503        C  0.47578413  0.37907239  0.88664136    -0.14900
C504        C  0.43357910  0.35412457  0.87290249     0.37500
N505        N  0.38993198  0.35240646  0.89830464    -0.89100
H506        H  0.40005663  0.31258434  0.82330671     0.18600
H507        H  0.04842804  0.39947362  0.86842492     0.18600
N508        N  0.05995514  0.35892404  0.79470028    -0.88200
H509        H  0.36230401  0.36960321  0.88104990     0.35900
H510        H  0.39447364  0.36986933  0.92759711     0.41000
H511        H  0.05150294  0.37443350  0.76508436     0.40700
H512        H  0.07412550  0.32581508  0.79010150     0.35500
C513        C  0.02880779  0.63092404  0.63912683    -0.26200
C514        C  0.48648142  0.61938924  0.61537858    -0.14300
C515        C  0.44064238  0.63395053  0.63082993     0.36400
C516        C  0.43807706  0.65921649  0.66990013    -0.25600
C517        C  0.48041398  0.67049016  0.69420962    -0.14900
C518        C  0.02658651  0.65698197  0.67768618     0.37500
N519        N  0.07119857  0.67102434  0.69906471    -0.89100
H520        H  0.06391189  0.61921344  0.62751183     0.18600
H521        H  0.40278401  0.67072054  0.68127078     0.18600
N522        N  0.39676780  0.62196023  0.60719951    -0.88200
H523        H  0.07450105  0.70692252  0.69548638     0.35900
H524        H  0.10156229  0.65668631  0.68386867     0.41000
H525        H  0.39823871  0.63864607  0.57726998     0.40700
H526        H  0.36595987  0.63485230  0.62281683     0.35500
C527        C  0.45047075  0.66046799  0.82094151    -0.26200
C528        C  0.99757543  0.66513756  0.80287491    -0.14300
C529        C  0.03778999  0.64473421  0.82530750     0.36400
C530        C  0.03016262  0.62056001  0.86424529    -0.25600
C531        C  0.98360975  0.61653146  0.88267125    -0.14900
C532        C  0.44298364  0.63706950  0.86043076     0.37500
N533        N  0.39396805  0.63438320  0.87667687    -0.89100
H534        H  0.41946291  0.67708729  0.80525088     0.18600
H535        H  0.06112379  0.60409475  0.88015111     0.18600
N536        N  0.08710805  0.64819790  0.81000554    -0.88200
H537        H  0.38250290  0.66822722  0.88303288     0.35900
H538        H  0.39288715  0.61678432  0.90609004     0.41000
H539        H  0.08849529  0.66591621  0.78078629     0.40700
H540        H  0.09922889  0.61454048  0.80366517     0.35500
N541        N  0.47647892  0.57353662  0.00000513    -0.36500
N542        N  0.98635150  0.50217639  0.06764042    -0.57000
N543        N  0.99248546  0.42762084  0.49863620    -0.36500
N544        N  0.99563910  0.50140001  0.43235423    -0.57000
C545        C  0.48555407  0.60109316  0.03490010     0.27100
C546        C  0.50069630  0.60060097  0.46474507     0.27100
C547        C  0.99241376  0.40222829  0.03781430     0.27100
C548        C  0.99598243  0.40094034  0.46255327     0.27100
C549        C  0.48150348  0.54027214  0.09308259     0.35700
C550        C  0.98621886  0.46478977  0.09430429     0.35700
C551        C  0.49433765  0.53947318  0.40677186     0.35700
C552        C  0.99061529  0.46408969  0.40596945     0.35700
C553        C  0.49685902  0.64537617  0.02046751    -0.21800
C554        C  0.50845218  0.64571547  0.47896097    -0.21800
C555        C  0.00336944  0.35753039  0.02446302    -0.21800
C556        C  0.00273413  0.35522237  0.47531675    -0.21800
C557        C  0.47860815  0.52676017  0.13596882    -0.22800
C558        C  0.98212327  0.47936750  0.13678014    -0.22800
C559        C  0.48836774  0.52611735  0.36400999    -0.22800
C560        C  0.98583575  0.47887032  0.36347813    -0.22800
C561        C  0.48360534  0.58736949  0.07930556    -0.18200
C562        C  0.50019957  0.58633975  0.42041218    -0.18200
C563        C  0.99282928  0.41656892  0.41852143    -0.18200
C564        C  0.99263185  0.41767718  0.08182816    -0.18200
H565        H  0.50555772  0.67540862  0.04013856     0.14700
H566        H  0.51572947  0.67591469  0.45924997     0.14700
H567        H  0.01390925  0.32856266  0.04474308     0.14700
H568        H  0.00649744  0.32532135  0.45450097     0.14700
H569        H  0.47545645  0.54866975  0.16415723     0.13000
H570        H  0.98199415  0.45832109  0.16569267     0.13000
H571        H  0.48631363  0.54804716  0.33570407     0.13000
H572        H  0.98152812  0.45780923  0.33475114     0.13000
H573        H  0.46273723  0.53998783  0.00109832     0.26300
H574        H  0.98403698  0.46248744  0.49893573     0.26300
C575        C  0.54401581  0.24822957  0.21602169     0.45600
H576        H  0.56955122  0.25235328  0.18892533    -0.03400
C577        C  0.98707572  0.24381504  0.28165078     0.45600
H578        H  0.96227326  0.24279697  0.30968584    -0.03400
C579        C  0.99720717  0.22043125  0.20624419    -0.17100
C580        C  0.56695729  0.22182674  0.25513578    -0.16900
C581        C  0.52569935  0.29612731  0.23094094    -0.17300
C582        C  0.96701969  0.21684874  0.24175555    -0.17200
C583        C  0.53659515  0.22143365  0.29052761    -0.16800
C584        C  0.99860074  0.29368662  0.26800161    -0.17100
O585        O  0.70569049  0.94748627  0.28462976    -0.72800
O586        O  0.80951920  0.04919755  0.29365448    -0.73800
O587        O  0.70705450  0.04760279  0.28099785    -0.62400
O588        O  0.80837570  0.94883738  0.29997537    -0.70800
O589        O  0.81815470  0.94235686  0.22919894    -0.70400
O590        O  0.71937048  0.04668412  0.21035927    -0.61600
O591        O  0.82200594  0.04168496  0.22335965    -0.74100
O592        O  0.71602120  0.94556016  0.21369863    -0.72900
Cu593      Cu  0.75724441  0.99838272  0.29226445     1.04600
Cu594      Cu  0.76919539  0.99391847  0.21667670     1.04300
C595        C  0.69545735  0.93002433  0.24752460     0.93400
C596        C  0.83157229  0.06164764  0.25926308     0.92500
C597        C  0.69844825  0.06406223  0.24343521     0.84700
C598        C  0.82827499  0.92916802  0.26779191     0.90900
C599        C  0.55051507  0.74888276  0.27530749     0.45600
H600        H  0.58533685  0.74594883  0.29388993    -0.03400
C601        C  0.97087240  0.75359575  0.22993101     0.45600
H602        H  0.93590171  0.75318380  0.21181842    -0.03400
C603        C  0.01015700  0.77486071  0.29884898    -0.17100
C604        C  0.55605767  0.77759246  0.23293026    -0.16900
C605        C  0.52769319  0.70085394  0.26555963    -0.17300
C606        C  0.96707054  0.77766371  0.27504066    -0.17200
C607        C  0.51308367  0.77987990  0.20872154    -0.16800
C608        C  0.99028245  0.70363897  0.23533045    -0.17100
N609        N  0.96852622  0.00134500  0.06489376    -0.36500
N610        N  0.05381814  0.92897708  0.50550388    -0.57000
N611        N  0.05717041  0.99634202  0.43584872    -0.36500
N612        N  0.03791043  0.06868864  0.49742091    -0.57000
C613        C  0.98997554  0.96654290  0.08733713     0.27100
C614        C  0.97611310  0.04084363  0.08744195     0.27100
C615        C  0.04663770  0.95740833  0.41322162     0.27100
C616        C  0.04976797  0.03259208  0.40904711     0.27100
C617        C  0.97010610  0.90259691  0.03642235     0.36500
C618        C  0.06104450  0.90027829  0.47199586     0.35700
C619        C  0.94861144  0.09668203  0.03130650     0.35700
C620        C  0.05045601  0.09558547  0.46372948     0.35700
C621        C  0.01017466  0.98378017  0.12536712    -0.21800
C622        C  0.00123462  0.03070902  0.12557086    -0.21800
C623        C  0.03383404  0.96901772  0.37109663    -0.21800
C624        C  0.03656988  0.01653061  0.36826755    -0.21800
C625        C  0.95797893  0.85671620  0.02791669    -0.22800
C626        C  0.07365689  0.85639894  0.48633423    -0.22800
C627        C  0.93723045  0.14090794  0.01656221    -0.22800
C628        C  0.05153911  0.14196065  0.47586392    -0.22800
C629        C  0.98820424  0.91917507  0.07606444    -0.18200
C630        C  0.96078722  0.08559449  0.07426127    -0.18200
C631        C  0.05342615  0.07976592  0.42090864    -0.18200
C632        C  0.05068354  0.91160220  0.42891704    -0.18200
H633        H  0.02890531  0.96446023  0.15056460     0.14700
H634        H  0.01235001  0.05448119  0.15092343     0.14700
H635        H  0.02394766  0.94570372  0.34497392     0.14700
H636        H  0.02843537  0.03685311  0.33970280     0.14700
H637        H  0.95945867  0.82746460  0.04980912     0.13000
H638        H  0.08026225  0.82575399  0.46708920     0.13000
H639        H  0.93178995  0.17204594  0.03536863     0.13000
H640        H  0.05848507  0.17199565  0.45587932     0.13000
H641        H  0.94550699  0.99783934  0.03814713     0.26300
H642        H  0.07244105  0.99829186  0.46666651     0.26300
C643        C  0.95815571  0.87356054  0.13543785    -0.26200
C644        C  0.49795003  0.88442892  0.10989958    -0.14300
C645        C  0.54111612  0.85770925  0.11264715     0.36400
C646        C  0.54413333  0.82215571  0.14351024    -0.25600
C647        C  0.50508435  0.81277438  0.17160736    -0.14900
C648        C  0.96053598  0.83775722  0.16525809     0.37500
N649        N  0.91691390  0.82763205  0.18816730    -0.89100
H650        H  0.92410957  0.89250086  0.13138252     0.18600
H651        H  0.57761772  0.80223546  0.14601049     0.18600
N652        N  0.58230647  0.86584807  0.08521074    -0.88200
H653        H  0.90427611  0.85868675  0.20117115     0.35900
H654        H  0.89039015  0.81634291  0.16584855     0.41000
H655        H  0.57614467  0.89380768  0.06443997     0.40700
H656        H  0.58642879  0.83646738  0.06581636     0.35500
C657        C  0.99937837  0.84719265  0.40052504    -0.26200
C658        C  0.04311866  0.87289088  0.39856156    -0.14300
C659        C  0.57926995  0.86082560  0.36862603     0.36400
C660        C  0.56881546  0.82620682  0.33872398    -0.25600
C661        C  0.02289154  0.80364608  0.33730897    -0.14900
C662        C  0.98935686  0.81176312  0.37057260     0.37500
N663        N  0.94536967  0.78446818  0.37340982    -0.89100
H664        H  0.97291242  0.85528316  0.42514609     0.18600
H665        H  0.59675154  0.81866789  0.31564062     0.18600
N666        N  0.62666169  0.88282234  0.36752547    -0.88200
H667        H  0.92475044  0.79485095  0.39988440     0.35900
H668        H  0.95577987  0.75011601  0.37915263     0.41000
H669        H  0.63165905  0.90680237  0.39242537     0.40700
H670        H  0.62890421  0.90119476  0.33854766     0.35500
C671        C  0.67730635  0.84563555  0.23725453    -0.26200
C672        C  0.66013384  0.89109223  0.24324739    -0.14300
C673        C  0.60947825  0.89917216  0.24280818     0.36400
C674        C  0.57697872  0.86193116  0.23644305    -0.25600
C675        C  0.59352189  0.81597142  0.23201754    -0.14900
C676        C  0.64470973  0.80787968  0.23212678     0.37500
N677        N  0.66491342  0.76223991  0.22714257    -0.89100
H678        H  0.71640788  0.83935083  0.23698310     0.18600
H679        H  0.53818559  0.86878005  0.23619576     0.18600
N680        N  0.59112301  0.94523656  0.24895417    -0.88200
H681        H  0.68506806  0.76218984  0.19868185     0.35900
H682        H  0.63744782  0.73734689  0.22301580     0.41000
H683        H  0.60008696  0.95506332  0.28055704     0.40700
H684        H  0.55289078  0.94561685  0.24663637     0.35500
C685        C  0.84627409  0.84484063  0.27444407    -0.26200
C686        C  0.86335982  0.89091907  0.27546303    -0.14300
C687        C  0.91381834  0.89935321  0.28252253     0.36400
C688        C  0.94604072  0.86171049  0.28548079    -0.25600
C689        C  0.92978834  0.81533515  0.28161278    -0.14900
C690        C  0.87867025  0.80697894  0.27774617     0.37500
N691        N  0.85844636  0.76088061  0.27568579    -0.89100
H692        H  0.80745877  0.83816430  0.26990855     0.18600
H693        H  0.98455760  0.86935045  0.28908131     0.18600
N694        N  0.93403791  0.94542730  0.28564663    -0.88200
H695        H  0.83510814  0.75700747  0.30193332     0.35900
H696        H  0.88554354  0.73579690  0.27970391     0.41000
H697        H  0.90703302  0.97087462  0.28372190     0.40700
H698        H  0.95689893  0.95034555  0.25921278     0.35500
C699        C  0.51708645  0.13913212  0.11162613    -0.26200
C700        C  0.96872007  0.12473218  0.10401321    -0.14300
C701        C  0.92978720  0.14842262  0.12325544     0.36400
C702        C  0.94051181  0.18511349  0.15157103    -0.25600
C703        C  0.98907756  0.19416591  0.16511288    -0.14900
C704        C  0.52791482  0.17236491  0.14287371     0.37500
N705        N  0.57834004  0.18123472  0.15273568    -0.89100
H706        H  0.54682331  0.12199070  0.09518188     0.18600
H707        H  0.91063971  0.20353373  0.16646038     0.18600
N708        N  0.88006298  0.13338302  0.11612710    -0.88200
H709        H  0.59497711  0.19380237  0.12484653     0.35900
H710        H  0.59500357  0.14970727  0.16070664     0.41000
H711        H  0.87069593  0.13967968  0.08388769     0.40700
H712        H  0.85609358  0.15309848  0.13465234     0.35500
C713        C  0.00087237  0.16281278  0.33954131    -0.26200
C714        C  0.54200770  0.18899521  0.32787716    -0.14300
C715        C  0.58741889  0.17962487  0.34877876     0.36400
C716        C  0.59075882  0.14173721  0.37693227    -0.25600
C717        C  0.54923990  0.11523535  0.38695996    -0.14900
C718        C  0.00351198  0.12714022  0.36934472     0.37500
N719        N  0.95861957  0.10381562  0.38046300    -0.89100
H720        H  0.96544953  0.16890461  0.32518349     0.18600
H721        H  0.62551105  0.13411110  0.39264133     0.18600
N722        N  0.63001428  0.20844607  0.34371288    -0.88200
H723        H  0.93557019  0.12838842  0.39435172     0.35900
H724        H  0.96382592  0.07814775  0.40374054     0.41000
H725        H  0.62257514  0.23753377  0.32475123     0.40700
H726        H  0.65679561  0.18887284  0.32833353     0.35500
C727        C  0.94505118  0.13222206  0.23611982    -0.26200
C728        C  0.93088695  0.17759882  0.24750764    -0.14300
C729        C  0.88433199  0.18360242  0.26657276     0.36400
C730        C  0.85376703  0.14471442  0.27311893    -0.25600
C731        C  0.86766247  0.10013529  0.25972531    -0.14900
C732        C  0.91372429  0.09412381  0.24108411     0.37500
N733        N  0.92870566  0.04917900  0.22672496    -0.89100
H734        H  0.98021078  0.12608481  0.22175284     0.18600
H735        H  0.81768182  0.14982552  0.28643312     0.18600
N736        N  0.86561986  0.22854110  0.27751060    -0.88200
H737        H  0.96176473  0.04097689  0.24229386     0.35900
H738        H  0.93519229  0.05120323  0.19362315     0.41000
H739        H  0.88814590  0.25519055  0.26647207     0.40700
H740        H  0.86468158  0.23072314  0.31117061     0.35500
C741        C  0.58421243  0.13669736  0.25313374    -0.26200
C742        C  0.60185816  0.18223862  0.24765320    -0.14300
C743        C  0.65134408  0.18818631  0.23518145     0.36400
C744        C  0.68180067  0.14880476  0.23117000    -0.25600
C745        C  0.66410667  0.10374464  0.23949553    -0.14900
C746        C  0.61453597  0.09814103  0.25017025     0.37500
N747        N  0.59385121  0.05342145  0.25840400    -0.89100
H748        H  0.54662872  0.13082353  0.26179605     0.18600
H749        H  0.72008747  0.15366037  0.22349978     0.18600
N750        N  0.67249618  0.23326248  0.22824120    -0.88200
H751        H  0.61227741  0.03870483  0.28477764     0.35900
H752        H  0.59944749  0.03291037  0.23112502     0.41000
H753        H  0.64735134  0.25968387  0.23385871     0.40700
H754        H  0.68190810  0.23537108  0.19569921     0.35500
C755        C  0.55636003  0.34723481  0.17118964    -0.26200
C756        C  0.51666120  0.33158674  0.19589724    -0.14300
C757        C  0.96892563  0.34165410  0.18074288     0.36400
C758        C  0.96177472  0.36752528  0.14246052    -0.25600
C759        C  0.50131701  0.38369780  0.11815524    -0.14900
C760        C  0.54926015  0.37357786  0.13301303     0.37500
N761        N  0.59061294  0.39000209  0.10912910    -0.89100
H762        H  0.59319944  0.33832303  0.18153307     0.18600
H763        H  0.92482250  0.37583248  0.13197792     0.18600
N764        N  0.92719455  0.32437408  0.20326758    -0.88200
H765        H  0.62330510  0.37910485  0.12378147     0.35900
H766        H  0.59064513  0.42624670  0.11060448     0.41000
H767        H  0.90681880  0.30341579  0.18207394     0.40700
H768        H  0.90552504  0.35263335  0.21190067     0.35500
C769        C  0.95257691  0.33596695  0.32550961    -0.26200
C770        C  0.99634193  0.33074234  0.30240211    -0.14300
C771        C  0.53907236  0.35246034  0.31947002     0.36400
C772        C  0.53738072  0.37738612  0.35852303    -0.25600
C773        C  0.99381164  0.38203482  0.38179709    -0.14900
C774        C  0.95054338  0.36153781  0.36434308     0.37500
N775        N  0.90390924  0.36586129  0.38494045    -0.89100
H776        H  0.91951072  0.31913398  0.31366546     0.18600
H777        H  0.57040222  0.39435630  0.37036015     0.18600
N778        N  0.58532811  0.34898326  0.29851739    -0.88200
H779        H  0.88100642  0.38487417  0.36427535     0.35900
H780        H  0.90667066  0.38449008  0.41375032     0.41000
H781        H  0.58202673  0.36352608  0.26773504     0.40700
H782        H  0.59454334  0.31398521  0.29567755     0.35500
C783        C  0.53061784  0.62845738  0.13831631    -0.26200
C784        C  0.98673338  0.62310098  0.11491813    -0.14300
C785        C  0.94406451  0.64389258  0.13118617     0.36400
C786        C  0.94597607  0.66826869  0.17092176    -0.25600
C787        C  0.98981655  0.67301853  0.19522212    -0.14900
C788        C  0.53283497  0.65303419  0.17773396     0.37500
N789        N  0.57920193  0.65776668  0.19935688    -0.89100
H790        H  0.56343832  0.61192595  0.12656883     0.18600
H791        H  0.91263556  0.68323163  0.18319369     0.18600
N792        N  0.89846435  0.63863964  0.10801461    -0.88200
H793        H  0.60344750  0.67384949  0.17817538     0.35900
H794        H  0.59247750  0.62453529  0.20613561     0.41000
H795        H  0.90202516  0.65565074  0.07840495     0.40700
H796        H  0.87026663  0.65533609  0.12432962     0.35500
C797        C  0.97382494  0.66272488  0.32150269    -0.26200
C798        C  0.52142525  0.66935595  0.30449396    -0.14300
C799        C  0.56187573  0.65174352  0.32871610     0.36400
C800        C  0.55396783  0.62861720  0.36828483    -0.25600
C801        C  0.50675618  0.62154845  0.38475325    -0.14900
C802        C  0.96592354  0.63947058  0.36085339     0.37500
N803        N  0.91623907  0.63335506  0.37468272    -0.89100
H804        H  0.94224485  0.67641141  0.30439803     0.18600
H805        H  0.58509234  0.61395049  0.38544972     0.18600
N806        N  0.61142569  0.65548314  0.31388541    -0.88200
H807        H  0.90151204  0.66635316  0.37955537     0.35900
H808        H  0.91468033  0.61639813  0.40439617     0.41000
H809        H  0.61288346  0.67020682  0.28319442     0.40700
H810        H  0.62493222  0.62179844  0.31047143     0.35500
N811        N  0.49210983  0.57319845  0.49966479    -0.36500
N812        N  0.99372112  0.49955338  0.56611537    -0.57000
N813        N  0.98009119  0.42785246  0.00241345    -0.36500
N814        N  0.97526678  0.49910861  0.93478439    -0.57000
C815        C  0.49533977  0.59985821  0.53578534     0.27100
C816        C  0.48334119  0.59916750  0.96362968     0.27100
C817        C  0.99806437  0.39999096  0.53406127     0.27100
C818        C  0.98432707  0.40057543  0.96676432     0.27100
C819        C  0.48906238  0.53701927  0.59227937     0.35700
C820        C  0.99301788  0.46152687  0.59195509     0.35700
C821        C  0.46776480  0.53645036  0.90872624     0.35700
C822        C  0.96659597  0.46095628  0.91018349     0.35700
C823        C  0.50485280  0.64529057  0.52354494    -0.21800
C824        C  0.49570477  0.64411474  0.97571418    -0.21800
C825        C  0.00410459  0.35463639  0.52012619    -0.21800
C826        C  0.99830349  0.35650530  0.97987177    -0.21800
C827        C  0.48573396  0.52255934  0.63486014    -0.22800
C828        C  0.98873499  0.47520378  0.63470179    -0.22800
C829        C  0.45443142  0.52174008  0.86759161    -0.22800
C830        C  0.95337263  0.47426543  0.86861129    -0.22800
C831        C  0.48974499  0.58444826  0.57940384    -0.18200
C832        C  0.47706596  0.58347525  0.91997871    -0.18200
C833        C  0.97475696  0.41418093  0.92293729    -0.18200
C834        C  0.99702894  0.41439576  0.57849347    -0.18200
H835        H  0.50925946  0.67503674  0.54458877     0.14700
H836        H  0.50294424  0.67310775  0.95449290     0.14700
H837        H  0.00902411  0.32419232  0.54015528     0.14700
H838        H  0.00424476  0.32665147  0.95943052     0.14700
H839        H  0.48215078  0.54380219  0.66343948     0.13000
H840        H  0.98789763  0.45356529  0.66321861     0.13000
H841        H  0.44697534  0.54284951  0.83940547     0.13000
H842        H  0.94482024  0.45212872  0.84129653     0.13000
H843        H  0.48100100  0.53888733  0.49886274     0.26300
H844        H  0.96589895  0.46112227  0.00283427     0.26300
C845        C  0.53145696  0.25017417  0.72717736     0.45600
H846        H  0.56553641  0.25484688  0.70908658    -0.03400
C847        C  0.95437066  0.24720082  0.77387583     0.45600
H848        H  0.92060886  0.24635729  0.79313664    -0.03400
C849        C  0.99038082  0.22175929  0.70530004    -0.17100
C850        C  0.53971755  0.22412538  0.77088072    -0.16900
C851        C  0.50850863  0.29830166  0.73498382    -0.17300
C852        C  0.94840448  0.22006542  0.73028095    -0.17200
C853        C  0.49803559  0.22297178  0.79573749    -0.16800
C854        C  0.97268612  0.29732225  0.76597533    -0.17100
O855        O  0.69628332  0.95188404  0.79971419    -0.72800
O856        O  0.79840904  0.05403421  0.78291735    -0.73800
O857        O  0.69630681  0.05315048  0.79726874    -0.62400
O858        O  0.79873183  0.95401726  0.78689988    -0.70800
O859        O  0.78432446  0.94842113  0.71640495    -0.70400
O860        O  0.68494700  0.05221786  0.72617394    -0.61600
O861        O  0.78720314  0.04890140  0.71198493    -0.74100
O862        O  0.68198841  0.95239657  0.72904354    -0.72900
Cu863      Cu  0.74784516  0.00336568  0.79419472     1.04600
Cu864      Cu  0.73416855  0.00040586  0.71847555     1.04300
C865        C  0.67376159  0.93560494  0.76641826     0.93400
C866        C  0.80819135  0.06780096  0.74465605     0.92500
C867        C  0.67567472  0.06937945  0.76328235     0.84700
C868        C  0.80679191  0.93469731  0.75058961     0.90900
C869        C  0.51960481  0.74948019  0.78554754     0.45600
H870        H  0.54563952  0.74660035  0.81322459    -0.03400
C871        C  0.96082042  0.75378098  0.71977968     0.45600
H872        H  0.93487341  0.75371583  0.69208395    -0.03400
C873        C  0.97112830  0.77295117  0.79596564    -0.17100
C874        C  0.53996778  0.77916616  0.74813770    -0.16900
C875        C  0.50479330  0.70150010  0.76835712    -0.17300
C876        C  0.93995784  0.77719039  0.76070240    -0.17200
C877        C  0.50880722  0.78012048  0.71251620    -0.16800
C878        C  0.97628269  0.70388440  0.73143729    -0.17100
N879        N  0.03840064  0.00133728  0.56713953    -0.36500
N880        N  0.96514414  0.92861575  0.00064367    -0.57000
N881        N  0.95015997  0.99533924  0.93320986    -0.36500
N882        N  0.95616387  0.06801697  0.99779796    -0.57000
C883        C  0.03356564  0.96395322  0.59307680     0.27100
C884        C  0.01810744  0.03783059  0.58754631     0.27100
C885        C  0.95697223  0.95648718  0.90987449     0.27100
C886        C  0.96380945  0.03152471  0.90836422     0.27100
C887        C  0.06106865  0.90345975  0.54136867     0.36500
C888        C  0.94988357  0.89951185  0.96927438     0.35700
C889        C  0.03152185  0.09773200  0.53092276     0.35700
C890        C  0.95025236  0.09382260  0.96199700     0.35700
C891        C  0.01172406  0.97738420  0.63134465    -0.21800
C892        C  0.00168297  0.02391891  0.62765429    -0.21800
C893        C  0.97279730  0.96816167  0.86886285    -0.21800
C894        C  0.97759183  0.01565094  0.86807985    -0.21800
C895        C  0.07365994  0.85833245  0.53036117    -0.22800
C896        C  0.94485577  0.85478189  0.98531038    -0.22800
C897        C  0.03933940  0.14330866  0.51841326    -0.22800
C898        C  0.93826719  0.13904122  0.97253497    -0.22800
C899        C  0.04835243  0.91811987  0.58307179    -0.18200
C900        C  0.01735327  0.08406369  0.57246673    -0.18200
C901        C  0.96160921  0.07859354  0.92041494    -0.18200
C902        C  0.95042972  0.91086654  0.92532224    -0.18200
H903        H  0.00371056  0.95606699  0.65914156     0.14700
H904        H  0.98479919  0.04529649  0.65192495     0.14700
H905        H  0.98131356  0.94494489  0.84258924     0.14700
H906        H  0.98957994  0.03615555  0.84091001     0.14700
H907        H  0.07950229  0.82894068  0.55143983     0.13000
H908        H  0.93539234  0.82347685  0.96777625     0.13000
H909        H  0.03609317  0.17440415  0.53774842     0.13000
H910        H  0.93283550  0.16807043  0.95083565     0.13000
H911        H  0.05877224  0.00273446  0.53919496     0.26300
H912        H  0.93354358  0.99689947  0.96315221     0.26300
C913        C  0.99131807  0.86973754  0.62342948    -0.26200
C914        C  0.53972607  0.88142016  0.61520343    -0.14300
C915        C  0.57792528  0.85519548  0.63412973     0.36400
C916        C  0.56597207  0.81825169  0.66124828    -0.25600
C917        C  0.51734642  0.81041436  0.67411362    -0.14900
C918        C  0.97958958  0.83600788  0.65369810     0.37500
N919        N  0.92919436  0.83016210  0.66427043    -0.89100
H920        H  0.96197723  0.88875031  0.60754417     0.18600
H921        H  0.59546470  0.79778795  0.67505652     0.18600
N922        N  0.62881320  0.86563340  0.62749180    -0.88200
H923        H  0.91558907  0.86233201  0.67398625     0.35900
H924        H  0.91006492  0.82028659  0.63627166     0.41000
H925        H  0.63338446  0.89502130  0.60825934     0.40700
H926        H  0.64420135  0.83767842  0.61106738     0.35500
C927        C  0.91549172  0.84566561  0.88323128    -0.26200
C928        C  0.95656123  0.87212170  0.89536904    -0.14300
C929        C  0.50387903  0.85923121  0.88171457     0.36400
C930        C  0.50791704  0.82380542  0.85189899    -0.25600
C931        C  0.96630692  0.79999544  0.83623649    -0.14900
C932        C  0.92029463  0.80829331  0.85478737     0.37500
N933        N  0.87860275  0.78020941  0.84308283    -0.89100
H934        H  0.87991526  0.85426681  0.89602868     0.18600
H935        H  0.54391543  0.81725501  0.83942934     0.18600
N936        N  0.54821261  0.88167991  0.89655725    -0.88200
H937        H  0.84747786  0.79128681  0.85939009     0.35900
H938        H  0.88580276  0.74641576  0.85348022     0.41000
H939        H  0.54195788  0.90631135  0.92047990     0.40700
H940        H  0.56339569  0.89914285  0.87030386     0.35500
C941        C  0.65569696  0.85098611  0.77709427    -0.26200
C942        C  0.63855639  0.89633607  0.76982226    -0.14300
C943        C  0.58914132  0.90266813  0.75833170     0.36400
C944        C  0.55862201  0.86407233  0.75210145    -0.25600
C945        C  0.57552020  0.81835427  0.75741526    -0.14900
C946        C  0.62493945  0.81186883  0.77086134     0.37500
N947        N  0.64586188  0.76656394  0.77646973    -0.89100
H948        H  0.69397543  0.84573934  0.78533439     0.18600
H949        H  0.52165375  0.86993485  0.74101724     0.18600
N950        N  0.57004500  0.94855034  0.75276320    -0.88200
H951        H  0.67414213  0.76328355  0.75426316     0.35900
H952        H  0.62058618  0.74062118  0.76872233     0.41000
H953        H  0.57040999  0.96391877  0.78333239     0.40700
H954        H  0.53337413  0.94747595  0.74266594     0.35500
C955        C  0.82518302  0.85118257  0.73755952    -0.26200
C956        C  0.84204664  0.89578212  0.74902891    -0.14300
C957        C  0.89092464  0.90118256  0.76364507     0.36400
C958        C  0.92095257  0.86216109  0.76712822    -0.25600
C959        C  0.90443071  0.81708601  0.75660230    -0.14900
C960        C  0.85541075  0.81172493  0.74170255     0.37500
N961        N  0.83452933  0.76701986  0.73189215    -0.89100
H962        H  0.78742842  0.84663379  0.72710794     0.18600
H963        H  0.95754683  0.86743282  0.77948498     0.18600
N964        N  0.91159759  0.94551368  0.77540610    -0.88200
H965        H  0.80573233  0.76148162  0.75322983     0.35900
H966        H  0.85950768  0.74035504  0.73765861     0.41000
H967        H  0.88690302  0.97254417  0.77057492     0.40700
H968        H  0.94076381  0.95209629  0.75472275     0.35500
C969        C  0.54964501  0.13668131  0.62713888    -0.26200
C970        C  0.00907308  0.12124869  0.60408965    -0.14300
C971        C  0.96380548  0.14364181  0.60852021     0.36400
C972        C  0.95964261  0.17950013  0.63909050    -0.25600
C973        C  0.99946916  0.19191390  0.66627549    -0.14900
C974        C  0.54603077  0.17197758  0.65741580     0.37500
N975        N  0.59048860  0.18674778  0.67801243    -0.89100
H976        H  0.58502640  0.12093236  0.62150014     0.18600
H977        H  0.92463525  0.19640904  0.64296057     0.18600
N978        N  0.92229168  0.12909774  0.58289706    -0.88200
H979        H  0.61310451  0.20090509  0.65439251     0.35900
H980        H  0.60837141  0.15752452  0.69027506     0.41000
H981        H  0.92997691  0.13644316  0.55063940     0.40700
H982        H  0.89142464  0.14856369  0.59074034     0.35500
C983        C  0.94397504  0.16425479  0.83037279    -0.26200
C984        C  0.48892408  0.18895108  0.83129890    -0.14300
C985        C  0.52397841  0.17801219  0.86381277     0.36400
C986        C  0.51531194  0.14009876  0.89098630    -0.25600
C987        C  0.47149734  0.11452140  0.88798145    -0.14900
C988        C  0.93463734  0.12762403  0.85806293     0.37500
N989        N  0.88755167  0.10504524  0.85497008    -0.89100
H990        H  0.91516996  0.17253239  0.80794423     0.18600
H991        H  0.54214661  0.13151502  0.91579472     0.18600
N992        N  0.56692215  0.20579930  0.87195785    -0.88200
H993        H  0.86093373  0.12959250  0.86262976     0.35900
H994        H  0.88385440  0.07813537  0.87718364     0.41000
H995        H  0.56749179  0.23555410  0.85279033     0.40700
H996        H  0.59761048  0.18583418  0.86470654     0.35500
C997        C  0.92511414  0.13542109  0.72327750    -0.26200
C998        C  0.90987900  0.18207496  0.72694667    -0.14300
C999        C  0.85944631  0.19031015  0.73494816     0.36400
C1000       C  0.82709183  0.15254441  0.74025803    -0.25600
C1001       C  0.84331656  0.10648272  0.73792817    -0.14900
C1002       C  0.89262593  0.09788858  0.72863491     0.37500
N1003       N  0.90993338  0.05095988  0.72616707    -0.89100
H1004       H  0.96289249  0.12772845  0.71698026     0.18600
H1005       H  0.78884366  0.15930284  0.74662581     0.18600
N1006       N  0.83949323  0.23623481  0.73778361    -0.88200
H1007       H  0.94777944  0.05029570  0.72161570     0.35900
H1008       H  0.89370374  0.03559419  0.69893383     0.41000
H1009       H  0.86584124  0.26146852  0.73164924     0.40700
H1010       H  0.82788801  0.24118642  0.76947070     0.35500
C1011       C  0.55853032  0.13967032  0.76782551    -0.26200
C1012       C  0.57624493  0.18521231  0.77296744    -0.14300
C1013       C  0.62768084  0.19213377  0.77568659     0.36400
C1014       C  0.65912157  0.15348086  0.77411365    -0.25600
C1015       C  0.64085694  0.10841134  0.76699073    -0.14900
C1016       C  0.58974773  0.10178937  0.76313848     0.37500
N1017       N  0.56803938  0.05769207  0.75285604    -0.89100
H1018       H  0.51969922  0.13348395  0.76580001     0.18600
H1019       H  0.69833132  0.15892760  0.77691952     0.18600
N1020       N  0.64935681  0.23737444  0.78010966    -0.88200
H1021       H  0.54793971  0.04697639  0.77956227     0.35900
H1022       H  0.59467282  0.03277171  0.74727221     0.41000
H1023       H  0.62269360  0.26301793  0.78121668     0.40700
H1024       H  0.66975508  0.24369600  0.75237821     0.35500
C1025       C  0.54764380  0.34210309  0.67341201    -0.26200
C1026       C  0.50466651  0.32987195  0.69559766    -0.14300
C1027       C  0.95889400  0.34263413  0.67628424     0.36400
C1028       C  0.95735771  0.36656068  0.63645282    -0.25600
C1029       C  0.50066941  0.37917142  0.61480207    -0.14900
C1030       C  0.54617268  0.36698523  0.63386313     0.37500
N1031       N  0.59084465  0.38045786  0.61321703    -0.89100
H1032       H  0.58280057  0.33259323  0.68730657     0.18600
H1033       H  0.92220778  0.37712401  0.62319720     0.18600
N1034       N  0.91376541  0.33098969  0.69656134    -0.88200
H1035       H  0.62116795  0.36852119  0.63086393     0.35900
H1036       H  0.59284241  0.41669134  0.61369188     0.41000
H1037       H  0.89294241  0.31116403  0.67476246     0.40700
H1038       H  0.89480749  0.36175260  0.70243105     0.35500
C1039       C  0.93336163  0.33022275  0.83309816    -0.26200
C1040       C  0.97417800  0.32970552  0.80538983    -0.14300
C1041       C  0.51657189  0.35521904  0.81973187     0.36400
C1042       C  0.51657551  0.37895470  0.85950646    -0.25600
C1043       C  0.97584004  0.37900368  0.88666471    -0.14900
C1044       C  0.93368875  0.35386939  0.87310796     0.37500
N1045       N  0.89019918  0.35193252  0.89870622    -0.89100
H1046       H  0.90007019  0.31225377  0.82364077     0.18600
H1047       H  0.54858868  0.39919250  0.86872715     0.18600
N1048       N  0.56037779  0.35841216  0.79513270    -0.88200
H1049       H  0.86237729  0.36898945  0.88157387     0.35900
H1050       H  0.89480767  0.36941800  0.92797905     0.41000
H1051       H  0.55224642  0.37392962  0.76545421     0.40700
H1052       H  0.57430476  0.32519225  0.79064789     0.35500
C1053       C  0.52884431  0.63101177  0.63915831    -0.26200
C1054       C  0.98637928  0.61930708  0.61543196    -0.14300
C1055       C  0.94058055  0.63382194  0.63100626     0.36400
C1056       C  0.93811906  0.65904984  0.67010132    -0.25600
C1057       C  0.98052171  0.67033398  0.69431490    -0.14900
C1058       C  0.52652340  0.65710548  0.67768939     0.37500
N1059       N  0.57108554  0.67115214  0.69914577    -0.89100
H1060       H  0.56397801  0.61927754  0.62763109     0.18600
H1061       H  0.90285623  0.67053763  0.68155656     0.18600
N1062       N  0.89664294  0.62182858  0.60746950    -0.88200
H1063       H  0.57444693  0.70703390  0.69547226     0.35900
H1064       H  0.60148057  0.65673075  0.68406521     0.41000
H1065       H  0.89801161  0.63854327  0.57754913     0.40700
H1066       H  0.86587554  0.63468780  0.62317080     0.35500
C1067       C  0.95073425  0.66052369  0.82111984    -0.26200
C1068       C  0.49736095  0.66520088  0.80281675    -0.14300
C1069       C  0.53756960  0.64494849  0.82538302     0.36400
C1070       C  0.52989303  0.62079768  0.86432322    -0.25600
C1071       C  0.48328940  0.61662866  0.88261967    -0.14900
C1072       C  0.94330100  0.63710813  0.86060564     0.37500
N1073       N  0.89433108  0.63453904  0.87697025    -0.89100
H1074       H  0.91972837  0.67724060  0.80551961     0.18600
H1075       H  0.56085928  0.60444978  0.88032892     0.18600
N1076       N  0.58693284  0.64855055  0.81021498    -0.88200
H1077       H  0.88300913  0.66840505  0.88342340     0.35900
H1078       H  0.89327526  0.61687459  0.90634997     0.41000
H1079       H  0.58834471  0.66616169  0.78094191     0.40700
H1080       H  0.59922296  0.61491972  0.80400898     0.35500
loop_ 
_geom_bond_atom_site_label_1 
_geom_bond_atom_site_label_2 
_geom_bond_distance 
_geom_bond_site_symmetry_2 
_ccdc_geom_bond_type 
N1           H33   1.036       .  S
N1            C5   1.361       .  A
N1          C276   1.362   1_554  A
N2           C10   1.358       .  A
N2          C549   1.357       .  A
N3           H34   1.032       .  S
N3            C8   1.361       .  A
N3          C277   1.363       .  A
N4           C12   1.356       .  A
N4          C551   1.357       .  A
C5           C13   1.387       .  A
C5           C21   1.433       .  A
C6          N271   1.362   1_455  A
C6           C22   1.434   1_455  A
C6           C14   1.387       .  A
C7          N273   1.361       .  A
C7           C15   1.388       .  A
C7           C24   1.435       .  A
C8           C23   1.438       .  A
C8           C16   1.388       .  A
C9          N542   1.357       .  A
C9           C21   1.424       .  A
C9           C17   1.388       .  A
C10          C24   1.424       .  A
C10          C18   1.387       .  A
C11         N544   1.357       .  A
C11          C19   1.387       .  A
C11          C22   1.423       .  A
C12          C20   1.388       .  A
C12          C23   1.425       .  A
C13         C284   1.387   1_554  A
C13          H25   1.082   1_655  S
C14         C283   1.386       .  A
C14          H26   1.082       .  S
C15         C286   1.387   1_554  A
C15          H27   1.082       .  S
C16         C285   1.388       .  A
C16          H28   1.082       .  S
C17         C558   1.366       .  A
C17          H29   1.082       .  S
C18         C557   1.366       .  A
C18          H30   1.082       .  S
C19         C560   1.366       .  A
C19          H31   1.082       .  S
C20         C559   1.366       .  A
C20          H32   1.082       .  S
C21         C784   1.511       .  S
C22         C261   1.512   1_655  S
C23         C233   1.512       .  S
C24         C759   1.512       .  S
C35          H36   1.104       .  S
C35          C41   1.543       .  S
C35          C40   1.557       .  S
C35         C579   1.531   1_455  S
C37          H38   1.109       .  S
C37          C42   1.553       .  S
C37          C44   1.531       .  S
C37         C583   1.528       .  S
C39         C575   1.531       .  S
C39          C42   1.387       .  D
C39         C163   1.496       .  S
C40          C43   1.383       .  D
C40         C202   1.509       .  S
C41         C584   1.379   1_455  D
C41         C216   1.509       .  S
C42         C188   1.510       .  S
C43         C577   1.528   1_455  S
C43         C174   1.493       .  S
C44         C581   1.379       .  D
C44         C230   1.511       .  S
O45         Cu53   2.041       .  S
O45          C55   1.282       .  A
O46         Cu53   2.041   1_545  S
O46          C56   1.281       .  A
O47         Cu53   2.003   1_545  S
O47          C57   1.276       .  A
O48         Cu53   2.013       .  S
O48          C58   1.276       .  A
O49         Cu54   2.037       .  S
O49          C58   1.282       .  A
O50         Cu54   2.052   1_545  S
O50          C57   1.283       .  A
O51         Cu54   1.999   1_545  S
O51          C56   1.276       .  A
O52         Cu54   2.010       .  S
O52          C55   1.276       .  A
Cu53        Cu54   2.372       .  S
C55         C132   1.482       .  S
C56         C191   1.481       .  S
C57         C205   1.486       .  S
C58         C146   1.480       .  S
C59          H60   1.109       .  S
C59          C65   1.544       .  S
C59          C64   1.561       .  S
C59         C603   1.523       .  S
C61          H62   1.101       .  S
C61          C66   1.565       .  S
C61          C68   1.544       .  S
C61         C607   1.530       .  S
C63         C599   1.523       .  S
C63          C66   1.383       .  D
C63         C121   1.489       .  S
C64          C67   1.386       .  D
C64         C135   1.504       .  S
C65         C608   1.375   1_455  D
C65         C258   1.521       .  S
C66         C149   1.507       .  S
C67         C601   1.530   1_455  S
C67         C107   1.504       .  S
C68         C605   1.375       .  D
C68         C247   1.524       .  S
N69         H101   1.038   1_545  S
N69          C74   1.349       .  A
N69          C73   1.351   1_545  A
N70          C78   1.344       .  A
N70         C347   1.345       .  A
N71         H102   1.038       .  S
N71          C76   1.349   1_565  A
N71          C75   1.351       .  A
N72          C80   1.347       .  A
N72         C349   1.347       .  A
C73          C81   1.386       .  A
C73          C89   1.410       .  A
C74          C90   1.416       .  A
C74          C82   1.390       .  A
C75          C83   1.388       .  A
C75          C92   1.411       .  A
C76          C91   1.411       .  A
C76          C84   1.388       .  A
C77         N340   1.344       .  A
C77          C89   1.401       .  A
C77          C85   1.386       .  A
C78          C92   1.399       .  A
C78          C86   1.384       .  A
C79         N342   1.345   1_554  A
C79          C87   1.389       .  A
C79          C90   1.405       .  A
C80          C88   1.388       .  A
C80          C91   1.406       .  A
C81          C82   1.375   1_565  A
C81          H93   1.083       .  S
C82          H94   1.082       .  S
C83          C84   1.374   1_565  A
C83          H95   1.083       .  S
C84          H96   1.082       .  S
C85         C356   1.364   1_554  A
C85          H97   1.082       .  S
C86         C355   1.365       .  A
C86          H98   1.083       .  S
C87         C358   1.366   1_554  A
C87          H99   1.082       .  S
C88         C357   1.365       .  A
C88         H100   1.082       .  S
C89         C644   1.469       .  S
C90         C160   1.470       .  S
C91         C717   1.469       .  S
C92         C118   1.471       .  S
C103        C108   1.386       .  A
C103        C644   1.384       .  A
C103        H110   1.086       .  S
C104        C105   1.412   1_655  A
C104        C643   1.384       .  A
C104        C629   1.469       .  S
C105        C106   1.403       .  A
C105        N112   1.437       .  S
C106        C107   1.411       .  A
C106        H111   1.083       .  S
C107        C648   1.422   1_455  A
C108        C647   1.422       .  A
C108        N109   1.424       .  S
N109        H113   1.043       .  S
N109        H114   1.046       .  S
N112        H115   1.044       .  S
N112        H116   1.046       .  S
C117        C118   1.405       .  A
C117        C122   1.403       .  A
C117        H124   1.084       .  S
C118        C659   1.405       .  A
C119        C120   1.388       .  A
C119        C658   1.405       .  A
C119        N126   1.440       .  S
C120        C661   1.408       .  A
C120        H125   1.075       .  S
C121        C122   1.408       .  A
C121        C660   1.408       .  A
C122        N123   1.437       .  S
N123        H127   1.045       .  S
N123        H128   1.046       .  S
N126        H129   1.043       .  S
N126        H130   1.045       .  S
C131        C132   1.406       .  A
C131        C136   1.411       .  A
C131        H138   1.084       .  S
C132        C133   1.404       .  A
C133        C134   1.402       .  A
C133        N140   1.434       .  S
C134        C135   1.408       .  A
C134        H139   1.078       .  S
C135        C136   1.418       .  A
C136        N137   1.437       .  S
N137        H141   1.046       .  S
N137        H142   1.042       .  S
N140        H143   1.045       .  S
N140        H144   1.046       .  S
C145        C146   1.406       .  A
C145        C150   1.410       .  A
C145        H152   1.084       .  S
C146        C147   1.412       .  A
C147        C148   1.402       .  A
C147        N154   1.439       .  S
C148        C149   1.411       .  A
C148        H153   1.078       .  S
C149        C150   1.419       .  A
C150        N151   1.438       .  S
N151        H155   1.045       .  S
N151        H156   1.043       .  S
N154        H157   1.043       .  S
N154        H158   1.046       .  S
C159        C164   1.390       .  A
C159        C700   1.392   1_455  A
C159        H166   1.085       .  S
C160        C161   1.405       .  A
C160        C699   1.392       .  A
C161        C162   1.401       .  A
C161        N168   1.438       .  S
C162        C163   1.409       .  A
C162        H167   1.083       .  S
C163        C704   1.420       .  A
C164        C703   1.420   1_455  A
C164        N165   1.429       .  S
N165        H169   1.046       .  S
N165        H170   1.046       .  S
N168        H171   1.044       .  S
N168        H172   1.046       .  S
C173        C178   1.383       .  A
C173        C714   1.407       .  A
C173        H180   1.074       .  S
C174        C175   1.418       .  A
C174        C713   1.407       .  A
C175        C176   1.400       .  A
C175        N182   1.437       .  S
C176        C177   1.403       .  A
C176        H181   1.084       .  S
C177        C718   1.408       .  A
C177        C631   1.469       .  S
C178        C717   1.408       .  A
C178        N179   1.442       .  S
N179        H183   1.046       .  S
N179        H184   1.042       .  S
N182        H185   1.043       .  S
N182        H186   1.045       .  S
C187        C188   1.411       .  A
C187        C192   1.399       .  A
C187        H194   1.079       .  S
C188        C189   1.420       .  A
C189        C190   1.411       .  A
C189        N196   1.436       .  S
C190        C191   1.405       .  A
C190        H195   1.084       .  S
C191        C192   1.402       .  A
C192        N193   1.432       .  S
N193        H197   1.046       .  S
N193        H198   1.045       .  S
N196        H199   1.043       .  S
N196        H200   1.045       .  S
C201        C202   1.407       .  A
C201        C206   1.392       .  A
C201        H208   1.077       .  S
C202        C203   1.420       .  A
C203        C204   1.416       .  A
C203        N210   1.437       .  S
C204        C205   1.409       .  A
C204        H209   1.084       .  S
C205        C206   1.406       .  A
C206        N207   1.429       .  S
N207        H211   1.045       .  S
N207        H212   1.045       .  S
N210        H213   1.043       .  S
N210        H214   1.045       .  S
C215        C216   1.408       .  A
C215        C220   1.417       .  A
C215        H222   1.084       .  S
C216        C757   1.416   1_455  A
C217        C218   1.413       .  A
C217        C756   1.416       .  A
C217        N224   1.432       .  S
C218        C759   1.406       .  A
C218        H223   1.084       .  S
C219        C220   1.413       .  A
C219        C758   1.406   1_455  A
C219        C564   1.511   1_455  S
C220        N221   1.437       .  S
N221        H225   1.045       .  S
N221        H226   1.045       .  S
N224        H227   1.046       .  S
N224        H228   1.045       .  S
C229        C230   1.410       .  A
C229        C234   1.413       .  A
C229        H236   1.083       .  S
C230        C771   1.420       .  A
C231        C232   1.409       .  A
C231        C770   1.420   1_455  A
C231        N238   1.432       .  S
C232        C773   1.408   1_455  A
C232        H237   1.084       .  S
C233        C234   1.419       .  A
C233        C772   1.408       .  A
C234        N235   1.438       .  S
N235        H239   1.046       .  S
N235        H240   1.043       .  S
N238        H241   1.045       .  S
N238        H242   1.044       .  S
C243        C248   1.412       .  A
C243        C784   1.404   1_455  A
C243        H250   1.084       .  S
C244        C245   1.411       .  A
C244        C783   1.404       .  A
C244        C561   1.511       .  S
C245        C246   1.418       .  A
C245        N252   1.437       .  S
C246        C247   1.412       .  A
C246        H251   1.082       .  S
C247        C788   1.422       .  A
C248        C787   1.422   1_455  A
C248        N249   1.431       .  S
N249        H253   1.045       .  S
N249        H254   1.046       .  S
N252        H255   1.046       .  S
N252        H256   1.046       .  S
C257        C262   1.410       .  A
C257        C798   1.414       .  A
C257        H264   1.082       .  S
C258        C259   1.422       .  A
C258        C797   1.414   1_455  A
C259        C260   1.414       .  A
C259        N266   1.438       .  S
C260        C261   1.407       .  A
C260        H265   1.084       .  S
C261        C802   1.418   1_455  A
C262        C801   1.418       .  A
C262        N263   1.438       .  S
N263        H267   1.046       .  S
N263        H268   1.043       .  S
N266        H269   1.042       .  S
N266        H270   1.046       .  S
N271        H303   1.033       .  S
N271        C275   1.359       .  A
N272        C819   1.357       .  A
N272        C280   1.357       .  A
N273        H304   1.035       .  S
N273        C278   1.362   1_554  A
N274        C821   1.356       .  A
N274        C282   1.356       .  A
C275        C283   1.388   1_655  A
C275        C291   1.432       .  A
C276        C292   1.434       .  A
C276        C284   1.388       .  A
C277        C285   1.388       .  A
C277        C294   1.438       .  A
C278        C293   1.434       .  A
C278        C286   1.387       .  A
C279        N812   1.357       .  A
C279        C291   1.424       .  A
C279        C287   1.387       .  A
C280        C294   1.426       .  A
C280        C288   1.388       .  A
C281        N814   1.356       .  A
C281        C289   1.387       .  A
C281        C292   1.420       .  A
C282        C290   1.387       .  A
C282        C293   1.422       .  A
C283        H295   1.082       .  S
C284        H296   1.082   1_655  S
C285        H297   1.082       .  S
C286        H298   1.082       .  S
C287        C828   1.365       .  A
C287        H299   1.082       .  S
C288        C827   1.365       .  A
C288        H300   1.082       .  S
C289        C830   1.367       .  A
C289        H301   1.082       .  S
C290        C829   1.367       .  A
C290        H302   1.082       .  S
C291       C1054   1.506       .  S
C292        C531   1.512       .  S
C293        C503   1.514       .  S
C294       C1029   1.515       .  S
C305        H306   1.100       .  S
C305        C311   1.545       .  S
C305        C310   1.562       .  S
C305        C849   1.534   1_455  S
C307        H308   1.105       .  S
C307        C853   1.526       .  S
C307        C312   1.567       .  S
C307        C314   1.547       .  S
C309        C845   1.534       .  S
C309        C312   1.392       .  D
C309        C433   1.507       .  S
C310        C313   1.383   1_455  D
C310        C472   1.504       .  S
C311        C854   1.376   1_455  D
C311        C486   1.525       .  S
C312        C458   1.518       .  S
C313        C847   1.526       .  S
C313        C444   1.497       .  S
C314        C851   1.376       .  D
C314        C500   1.537       .  S
O315       Cu323   2.051   1_565  S
O315        C325   1.282       .  A
O316       Cu323   2.039       .  S
O316        C326   1.281       .  A
O317       Cu323   2.017       .  S
O317        C327   1.277       .  A
O318       Cu323   2.007   1_565  S
O318        C328   1.277       .  A
O319       Cu324   2.035   1_565  S
O319        C328   1.280       .  A
O320       Cu324   2.029       .  S
O320        C327   1.280       .  A
O321       Cu324   2.020       .  S
O321        C326   1.277       .  A
O322       Cu324   2.012   1_565  S
O322        C325   1.277       .  A
Cu323      Cu324   2.372       .  S
C325        C402   1.487       .  S
C326        C461   1.484       .  S
C327        C475   1.481       .  S
C328        C416   1.482       .  S
C329        H330   1.110       .  S
C329        C335   1.533       .  S
C329        C334   1.549       .  S
C329        C873   1.528   1_455  S
C331        H332   1.106       .  S
C331        C877   1.533       .  S
C331        C336   1.552       .  S
C331        C338   1.542       .  S
C333        C869   1.528       .  S
C333        C336   1.382       .  D
C333        C391   1.479       .  S
C334        C337   1.385       .  D
C334        C405   1.512       .  S
C335        C878   1.382   1_455  D
C335        C528   1.510   1_455  S
C336        C419   1.512       .  S
C337        C871   1.533   1_455  S
C337        C377   1.496       .  S
C338        C875   1.382       .  D
C338        C517   1.509       .  S
N339        H371   1.036       .  S
N339        C344   1.351       .  A
N339        C343   1.351   1_545  A
N340        C348   1.345   1_554  A
N341        H372   1.039       .  S
N341        C346   1.350   1_565  A
N341        C345   1.348       .  A
N342        C350   1.344       .  A
C343        C351   1.390       .  A
C343        C359   1.418       .  A
C344        C360   1.412       .  A
C344        C352   1.385       .  A
C345        C353   1.388       .  A
C345        C362   1.410       .  A
C346        C361   1.408       .  A
C346        C354   1.386       .  A
C347        C359   1.408       .  A
C347        C355   1.390       .  A
C348        C362   1.401       .  A
C348        C356   1.388       .  A
C349        C357   1.386       .  A
C349        C360   1.405       .  A
C350        C358   1.385       .  A
C350        C361   1.400       .  A
C351        C352   1.374   1_565  A
C351        H363   1.082       .  S
C352        H364   1.081       .  S
C353        C354   1.374   1_565  A
C353        H365   1.082       .  S
C354        H366   1.082       .  S
C355        H367   1.081       .  S
C356        H368   1.082       .  S
C357        H369   1.082       .  S
C358        H370   1.083       .  S
C359        C914   1.474       .  S
C360        C430   1.472       .  S
C361        C987   1.470       .  S
C362        C388   1.463       .  S
C373        C914   1.394       .  A
C373        C378   1.390       .  A
C373        H380   1.085       .  S
C374        C913   1.394   1_455  A
C374        C375   1.412       .  A
C374        C899   1.474       .  S
C375        C376   1.397       .  A
C375        N382   1.438       .  S
C376        C377   1.409       .  A
C376        H381   1.083       .  S
C377        C918   1.418   1_455  A
C378        C917   1.418       .  A
C378        N379   1.428       .  S
N379        H383   1.046       .  S
N379        H384   1.046       .  S
N382        H385   1.043       .  S
N382        H386   1.045       .  S
C387        C388   1.401       .  A
C387        C392   1.399       .  A
C387        H394   1.084       .  S
C388        C929   1.410       .  A
C389        C928   1.410   1_455  A
C389        C390   1.383       .  A
C389        N396   1.440       .  S
C390        C931   1.403   1_455  A
C390        H395   1.078       .  S
C391        C930   1.403       .  A
C391        C392   1.410       .  A
C392        N393   1.437       .  S
N393        H397   1.045       .  S
N393        H398   1.044       .  S
N396        H399   1.042       .  S
N396        H400   1.046       .  S
C401        C402   1.407       .  A
C401        C406   1.415       .  A
C401        H408   1.084       .  S
C402        C403   1.404       .  A
C403        C404   1.399       .  A
C403        N410   1.433       .  S
C404        C405   1.407       .  A
C404        H409   1.076       .  S
C405        C406   1.420       .  A
C406        N407   1.437       .  S
N407        H411   1.046       .  S
N407        H412   1.041       .  S
N410        H413   1.045       .  S
N410        H414   1.045       .  S
C415        C416   1.408       .  A
C415        C420   1.413       .  A
C415        H422   1.084       .  S
C416        C417   1.412       .  A
C417        C418   1.398       .  A
C417        N424   1.440       .  S
C418        C419   1.410       .  A
C418        H423   1.076       .  S
C419        C420   1.418       .  A
C420        N421   1.438       .  S
N421        H425   1.046       .  S
N421        H426   1.043       .  S
N424        H427   1.042       .  S
N424        H428   1.046       .  S
C429        C970   1.385       .  A
C429        C434   1.388       .  A
C429        H436   1.085       .  S
C430        C969   1.385       .  A
C430        C431   1.405       .  A
C431        C432   1.408       .  A
C431        N438   1.436       .  S
C432        C433   1.412       .  A
C432        H437   1.083       .  S
C433        C974   1.426       .  A
C434        C973   1.426   1_455  A
C434        N435   1.427       .  S
N435        H439   1.046       .  S
N435        H440   1.044       .  S
N438        H441   1.045       .  S
N438        H442   1.046       .  S
C443        C984   1.410       .  A
C443        C448   1.385       .  A
C443        H450   1.070       .  S
C444        C983   1.410       .  A
C444        C445   1.417   1_655  A
C445        C446   1.401       .  A
C445        N452   1.437       .  S
C446        C447   1.405   1_455  A
C446        H451   1.084       .  S
C447        C988   1.403       .  A
C447        C901   1.470       .  S
C448        C987   1.403       .  A
C448        N449   1.441       .  S
N449        H453   1.046       .  S
N449        H454   1.042       .  S
N452        H455   1.043       .  S
N452        H456   1.045       .  S
C457        C458   1.414       .  A
C457        C462   1.408       .  A
C457        H464   1.076       .  S
C458        C459   1.423       .  A
C459        C460   1.410       .  A
C459        N466   1.436       .  S
C460        C461   1.403       .  A
C460        H465   1.084       .  S
C461        C462   1.404       .  A
C462        N463   1.437       .  S
N463        H467   1.045       .  S
N463        H468   1.045       .  S
N466        H469   1.040       .  S
N466        H470   1.046       .  S
C471        C472   1.405       .  A
C471        C476   1.396       .  A
C471        H478   1.076       .  S
C472        C473   1.419       .  A
C473        C474   1.410       .  A
C473        N480   1.436       .  S
C474        C475   1.406       .  A
C474        H479   1.084       .  S
C475        C476   1.411       .  A
C476        N477   1.434       .  S
N477        H481   1.045       .  S
N477        H482   1.040       .  S
N480        H483   1.040       .  S
N480        H484   1.046       .  S
C485        C486   1.412       .  A
C485        C490   1.420       .  A
C485        H492   1.083       .  S
C486       C1027   1.419   1_455  A
C487       C1026   1.419       .  A
C487        C488   1.414       .  A
C487        N494   1.429       .  S
C488       C1029   1.405       .  A
C488        H493   1.084       .  S
C489       C1028   1.405   1_455  A
C489        C490   1.414       .  A
C489        C834   1.515   1_455  S
C490        N491   1.437       .  S
N491        H495   1.045       .  S
N491        H496   1.045       .  S
N494        H497   1.046       .  S
N494        H498   1.045       .  S
C499        C500   1.416       .  A
C499        C504   1.415       .  A
C499        H506   1.082       .  S
C500       C1041   1.431       .  A
C501       C1040   1.431   1_455  A
C501        C502   1.409       .  A
C501        N508   1.430       .  S
C502       C1043   1.404   1_455  A
C502        H507   1.084       .  S
C503       C1042   1.404       .  A
C503        C504   1.417       .  A
C504        N505   1.438       .  S
N505        H509   1.045       .  S
N505        H510   1.043       .  S
N508        H511   1.044       .  S
N508        H512   1.041       .  S
C513       C1054   1.403   1_455  A
C513        C518   1.413       .  A
C513        H520   1.083       .  S
C514       C1053   1.403       .  A
C514        C515   1.411       .  A
C514        C831   1.506       .  S
C515        C516   1.415       .  A
C515        N522   1.437       .  S
C516        C517   1.408       .  A
C516        H521   1.084       .  S
C517       C1058   1.420       .  A
C518       C1057   1.420   1_455  A
C518        N519   1.436       .  S
N519        H523   1.044       .  S
N519        H524   1.045       .  S
N522        H525   1.046       .  S
N522        H526   1.046       .  S
C527       C1068   1.411       .  A
C527        C532   1.414       .  A
C527        H534   1.084       .  S
C528       C1067   1.411       .  A
C528        C529   1.421   1_655  A
C529        C530   1.410       .  A
C529        N536   1.437       .  S
C530        C531   1.405   1_455  A
C530        H535   1.084       .  S
C531       C1072   1.420       .  A
C532       C1071   1.420       .  A
C532        N533   1.438       .  S
N533        H537   1.045       .  S
N533        H538   1.044       .  S
N536        H539   1.040       .  S
N536        H540   1.045       .  S
N541        H573   1.036       .  S
N541        C816   1.362   1_554  A
N541        C545   1.361       .  A
N542        C550   1.358       .  A
N543        H574   1.032       .  S
N543        C548   1.361       .  A
N543        C817   1.363       .  A
N544        C552   1.356       .  A
C545        C553   1.387       .  A
C545        C561   1.433       .  A
C546        N811   1.362       .  A
C546        C562   1.434       .  A
C546        C554   1.387       .  A
C547        N813   1.361       .  A
C547        C555   1.388   1_655  A
C547        C564   1.434       .  A
C548        C563   1.438       .  A
C548        C556   1.388   1_655  A
C549        C561   1.424       .  A
C549        C557   1.388       .  A
C550        C564   1.424       .  A
C550        C558   1.387       .  A
C551        C559   1.387       .  A
C551        C562   1.423       .  A
C552        C560   1.388       .  A
C552        C563   1.425       .  A
C553        C824   1.387   1_554  A
C553        H565   1.082       .  S
C554        C823   1.386       .  A
C554        H566   1.082       .  S
C555        C826   1.387   1_454  A
C555        H567   1.082       .  S
C556        C825   1.388       .  A
C556        H568   1.082       .  S
C557        H569   1.082       .  S
C558        H570   1.082       .  S
C559        H571   1.082       .  S
C560        H572   1.082       .  S
C562        C801   1.512       .  S
C563        C773   1.512       .  S
C575        H576   1.105       .  S
C575        C581   1.543       .  S
C575        C580   1.557       .  S
C577        H578   1.109       .  S
C577        C582   1.553       .  S
C577        C584   1.531       .  S
C579        C582   1.387       .  D
C579        C703   1.496       .  S
C580        C583   1.383       .  D
C580        C742   1.509       .  S
C581        C756   1.509       .  S
C582        C728   1.510       .  S
C583        C714   1.494       .  S
C584        C770   1.511       .  S
O585       Cu593   2.041       .  S
O585        C595   1.282       .  A
O586       Cu593   2.041   1_545  S
O586        C596   1.281       .  A
O587       Cu593   2.004   1_545  S
O587        C597   1.276       .  A
O588       Cu593   2.013       .  S
O588        C598   1.276       .  A
O589       Cu594   2.036       .  S
O589        C598   1.282       .  A
O590       Cu594   2.052   1_545  S
O590        C597   1.283       .  A
O591       Cu594   1.999   1_545  S
O591        C596   1.276       .  A
O592       Cu594   2.010       .  S
O592        C595   1.276       .  A
Cu593      Cu594   2.372       .  S
C595        C672   1.482       .  S
C596        C731   1.481       .  S
C597        C745   1.486       .  S
C598        C686   1.480       .  S
C599        H600   1.109       .  S
C599        C605   1.544       .  S
C599        C604   1.561       .  S
C601        H602   1.101       .  S
C601        C606   1.565       .  S
C601        C608   1.544       .  S
C603        C606   1.383   1_455  D
C603        C661   1.489       .  S
C604        C607   1.386       .  D
C604        C675   1.504       .  S
C605        C798   1.521       .  S
C606        C689   1.507       .  S
C607        C647   1.504       .  S
C608        C787   1.524       .  S
N609        H641   1.038   1_545  S
N609        C614   1.349       .  A
N609        C613   1.351   1_545  A
N610        C887   1.345       .  A
N610        C618   1.344       .  A
N611        H642   1.038       .  S
N611        C616   1.349   1_565  A
N611        C615   1.351       .  A
N612        C889   1.347       .  A
N612        C620   1.347       .  A
C613        C621   1.386   1_655  A
C613        C629   1.409       .  A
C614        C630   1.416       .  A
C614        C622   1.390   1_655  A
C615        C623   1.388       .  A
C615        C632   1.411       .  A
C616        C631   1.411       .  A
C616        C624   1.388       .  A
C617        N880   1.344       .  A
C617        C629   1.401       .  A
C617        C625   1.386       .  A
C618        C632   1.399       .  A
C618        C626   1.383       .  A
C619        N882   1.345   1_554  A
C619        C627   1.389       .  A
C619        C630   1.405       .  A
C620        C628   1.388       .  A
C620        C631   1.406       .  A
C621        C622   1.375   1_565  A
C621        H633   1.083       .  S
C622        H634   1.082       .  S
C623        C624   1.374   1_565  A
C623        H635   1.083       .  S
C624        H636   1.082       .  S
C625        C896   1.364   1_554  A
C625        H637   1.082       .  S
C626        C895   1.365       .  A
C626        H638   1.083       .  S
C627        C898   1.366   1_554  A
C627        H639   1.082       .  S
C628        C897   1.365       .  A
C628        H640   1.082       .  S
C630        C700   1.470       .  S
C632        C658   1.471       .  S
C643        C648   1.386       .  A
C643        H650   1.086       .  S
C644        C645   1.412       .  A
C645        C646   1.403       .  A
C645        N652   1.437       .  S
C646        C647   1.411       .  A
C646        H651   1.083       .  S
C648        N649   1.424       .  S
N649        H653   1.043       .  S
N649        H654   1.046       .  S
N652        H655   1.044       .  S
N652        H656   1.046       .  S
C657        C658   1.405   1_655  A
C657        C662   1.403       .  A
C657        H664   1.084       .  S
C659        C660   1.388       .  A
C659        N666   1.440       .  S
C660        H665   1.075       .  S
C661        C662   1.408   1_455  A
C662        N663   1.437       .  S
N663        H667   1.045       .  S
N663        H668   1.046       .  S
N666        H669   1.043       .  S
N666        H670   1.045       .  S
C671        C672   1.406       .  A
C671        C676   1.411       .  A
C671        H678   1.084       .  S
C672        C673   1.403       .  A
C673        C674   1.402       .  A
C673        N680   1.434       .  S
C674        C675   1.408       .  A
C674        H679   1.078       .  S
C675        C676   1.418       .  A
C676        N677   1.437       .  S
N677        H681   1.046       .  S
N677        H682   1.042       .  S
N680        H683   1.045       .  S
N680        H684   1.046       .  S
C685        C686   1.406       .  A
C685        C690   1.410       .  A
C685        H692   1.084       .  S
C686        C687   1.412       .  A
C687        C688   1.402       .  A
C687        N694   1.439       .  S
C688        C689   1.411       .  A
C688        H693   1.078       .  S
C689        C690   1.419       .  A
C690        N691   1.438       .  S
N691        H695   1.045       .  S
N691        H696   1.043       .  S
N694        H697   1.043       .  S
N694        H698   1.046       .  S
C699        C704   1.390       .  A
C699        H706   1.085       .  S
C700        C701   1.405       .  A
C701        C702   1.402       .  A
C701        N708   1.438       .  S
C702        C703   1.409       .  A
C702        H707   1.083       .  S
C704        N705   1.429       .  S
N705        H709   1.046       .  S
N705        H710   1.046       .  S
N708        H711   1.044       .  S
N708        H712   1.046       .  S
C713        C718   1.383       .  A
C713        H720   1.074   1_455  S
C714        C715   1.418       .  A
C715        C716   1.400       .  A
C715        N722   1.437       .  S
C716        C717   1.403       .  A
C716        H721   1.084       .  S
C718        N719   1.442   1_455  S
N719        H723   1.046       .  S
N719        H724   1.042       .  S
N722        H725   1.043       .  S
N722        H726   1.045       .  S
C727        C728   1.411       .  A
C727        C732   1.399       .  A
C727        H734   1.079       .  S
C728        C729   1.420       .  A
C729        C730   1.411       .  A
C729        N736   1.436       .  S
C730        C731   1.405       .  A
C730        H735   1.084       .  S
C731        C732   1.402       .  A
C732        N733   1.432       .  S
N733        H737   1.046       .  S
N733        H738   1.045       .  S
N736        H739   1.043       .  S
N736        H740   1.045       .  S
C741        C742   1.407       .  A
C741        C746   1.392       .  A
C741        H748   1.077       .  S
C742        C743   1.420       .  A
C743        C744   1.416       .  A
C743        N750   1.437       .  S
C744        C745   1.409       .  A
C744        H749   1.084       .  S
C745        C746   1.406       .  A
C746        N747   1.429       .  S
N747        H751   1.045       .  S
N747        H752   1.045       .  S
N750        H753   1.043       .  S
N750        H754   1.045       .  S
C755        C756   1.408       .  A
C755        C760   1.417       .  A
C755        H762   1.084       .  S
C757        C758   1.413       .  A
C757        N764   1.432       .  S
C758        H763   1.084       .  S
C759        C760   1.413       .  A
C760        N761   1.437       .  S
N761        H765   1.045       .  S
N761        H766   1.045       .  S
N764        H767   1.046       .  S
N764        H768   1.045       .  S
C769        C770   1.410       .  A
C769        C774   1.413       .  A
C769        H776   1.083       .  S
C771        C772   1.408       .  A
C771        N778   1.432       .  S
C772        H777   1.084       .  S
C773        C774   1.420       .  A
C774        N775   1.438       .  S
N775        H779   1.046       .  S
N775        H780   1.043       .  S
N778        H781   1.045       .  S
N778        H782   1.044       .  S
C783        C788   1.412       .  A
C783        H790   1.084       .  S
C784        C785   1.411       .  A
C785        C786   1.418       .  A
C785        N792   1.437       .  S
C786        C787   1.412       .  A
C786        H791   1.082       .  S
C788        N789   1.431       .  S
N789        H793   1.045       .  S
N789        H794   1.046       .  S
N792        H795   1.046       .  S
N792        H796   1.046       .  S
C797        C802   1.410       .  A
C797        H804   1.082       .  S
C798        C799   1.422       .  A
C799        C800   1.414       .  A
C799        N806   1.438       .  S
C800        C801   1.407       .  A
C800        H805   1.084       .  S
C802        N803   1.438       .  S
N803        H807   1.046       .  S
N803        H808   1.043       .  S
N806        H809   1.042       .  S
N806        H810   1.046       .  S
N811        H843   1.033       .  S
N811        C815   1.359       .  A
N812        C820   1.357       .  A
N813        H844   1.036       .  S
N813        C818   1.362   1_554  A
N814        C822   1.356       .  A
C815        C823   1.388       .  A
C815        C831   1.432       .  A
C816        C832   1.434       .  A
C816        C824   1.388       .  A
C817        C825   1.388   1_655  A
C817        C834   1.438       .  A
C818        C833   1.434       .  A
C818        C826   1.387       .  A
C819        C831   1.424       .  A
C819        C827   1.387       .  A
C820        C834   1.426       .  A
C820        C828   1.388       .  A
C821        C829   1.387       .  A
C821        C832   1.420       .  A
C822        C830   1.387       .  A
C822        C833   1.422       .  A
C823        H835   1.082       .  S
C824        H836   1.082       .  S
C825        H837   1.082       .  S
C826        H838   1.082   1_655  S
C827        H839   1.082       .  S
C828        H840   1.082       .  S
C829        H841   1.082       .  S
C830        H842   1.082       .  S
C832       C1071   1.512       .  S
C833       C1043   1.514       .  S
C845        H846   1.101       .  S
C845        C851   1.544       .  S
C845        C850   1.562       .  S
C847        H848   1.105       .  S
C847        C852   1.567       .  S
C847        C854   1.547       .  S
C849        C852   1.392       .  D
C849        C973   1.508       .  S
C850        C853   1.383       .  D
C850       C1012   1.504       .  S
C851       C1026   1.525       .  S
C852        C998   1.518       .  S
C853        C984   1.497       .  S
C854       C1040   1.537       .  S
O855       Cu863   2.050   1_565  S
O855        C865   1.282       .  A
O856       Cu863   2.039       .  S
O856        C866   1.281       .  A
O857       Cu863   2.017       .  S
O857        C867   1.277       .  A
O858       Cu863   2.007   1_565  S
O858        C868   1.277       .  A
O859       Cu864   2.035   1_565  S
O859        C868   1.280       .  A
O860       Cu864   2.029       .  S
O860        C867   1.280       .  A
O861       Cu864   2.021       .  S
O861        C866   1.277       .  A
O862       Cu864   2.012   1_565  S
O862        C865   1.277       .  A
Cu863      Cu864   2.372       .  S
C865        C942   1.487       .  S
C866       C1001   1.484       .  S
C867       C1015   1.481       .  S
C868        C956   1.482       .  S
C869        H870   1.110       .  S
C869        C875   1.533       .  S
C869        C874   1.548       .  S
C871        H872   1.106       .  S
C871        C876   1.552       .  S
C871        C878   1.542       .  S
C873        C876   1.382       .  D
C873        C931   1.479       .  S
C874        C877   1.385       .  D
C874        C945   1.512       .  S
C875       C1068   1.510       .  S
C876        C959   1.511       .  S
C877        C917   1.496       .  S
C878       C1057   1.508       .  S
N879        H911   1.036       .  S
N879        C884   1.352       .  A
N879        C883   1.351   1_545  A
N880        C888   1.345   1_554  A
N881        H912   1.039       .  S
N881        C886   1.350   1_565  A
N881        C885   1.348       .  A
N882        C890   1.344       .  A
C883        C891   1.390       .  A
C883        C899   1.418       .  A
C884        C900   1.412       .  A
C884        C892   1.385       .  A
C885        C893   1.388       .  A
C885        C902   1.411       .  A
C886        C901   1.409       .  A
C886        C894   1.387       .  A
C887        C899   1.408       .  A
C887        C895   1.390       .  A
C888        C902   1.401       .  A
C888        C896   1.388       .  A
C889        C897   1.386       .  A
C889        C900   1.405       .  A
C890        C898   1.385       .  A
C890        C901   1.400       .  A
C891        C892   1.374   1_565  A
C891        H903   1.082       .  S
C892        H904   1.081   1_455  S
C893        C894   1.374   1_565  A
C893        H905   1.082       .  S
C894        H906   1.082       .  S
C895        H907   1.081       .  S
C896        H908   1.082       .  S
C897        H909   1.082       .  S
C898        H910   1.083       .  S
C900        C970   1.472       .  S
C902        C928   1.463       .  S
C913        C918   1.390       .  A
C913        H920   1.085       .  S
C914        C915   1.412       .  A
C915        C916   1.397       .  A
C915        N922   1.438       .  S
C916        C917   1.409       .  A
C916        H921   1.083       .  S
C918        N919   1.428       .  S
N919        H923   1.046       .  S
N919        H924   1.046       .  S
N922        H925   1.044       .  S
N922        H926   1.045       .  S
C927        C928   1.401       .  A
C927        C932   1.399       .  A
C927        H934   1.084       .  S
C929        C930   1.382       .  A
C929        N936   1.440       .  S
C930        H935   1.078       .  S
C931        C932   1.410       .  A
C932        N933   1.437       .  S
N933        H937   1.045       .  S
N933        H938   1.044       .  S
N936        H939   1.042       .  S
N936        H940   1.046       .  S
C941        C942   1.407       .  A
C941        C946   1.415       .  A
C941        H948   1.084       .  S
C942        C943   1.404       .  A
C943        C944   1.399       .  A
C943        N950   1.433       .  S
C944        C945   1.407       .  A
C944        H949   1.076       .  S
C945        C946   1.420       .  A
C946        N947   1.437       .  S
N947        H951   1.046       .  S
N947        H952   1.041       .  S
N950        H953   1.045       .  S
N950        H954   1.045       .  S
C955        C956   1.408       .  A
C955        C960   1.412       .  A
C955        H962   1.084       .  S
C956        C957   1.412       .  A
C957        C958   1.398       .  A
C957        N964   1.440       .  S
C958        C959   1.410       .  A
C958        H963   1.076       .  S
C959        C960   1.418       .  A
C960        N961   1.438       .  S
N961        H965   1.046       .  S
N961        H966   1.043       .  S
N964        H967   1.042       .  S
N964        H968   1.046       .  S
C969        C974   1.388       .  A
C969        H976   1.085       .  S
C970        C971   1.405   1_455  A
C971        C972   1.408       .  A
C971        N978   1.436       .  S
C972        C973   1.412       .  A
C972        H977   1.083       .  S
C974        N975   1.427       .  S
N975        H979   1.046       .  S
N975        H980   1.044       .  S
N978        H981   1.045       .  S
N978        H982   1.046       .  S
C983        C988   1.385       .  A
C983        H990   1.070       .  S
C984        C985   1.417       .  A
C985        C986   1.401       .  A
C985        N992   1.437       .  S
C986        C987   1.405       .  A
C986        H991   1.084       .  S
C988        N989   1.441       .  S
N989        H993   1.046       .  S
N989        H994   1.042       .  S
N992        H995   1.043       .  S
N992        H996   1.045       .  S
C997        C998   1.414       .  A
C997       C1002   1.407       .  A
C997       H1004   1.076       .  S
C998        C999   1.423       .  A
C999       C1000   1.410       .  A
C999       N1006   1.436       .  S
C1000      C1001   1.403       .  A
C1000      H1005   1.084       .  S
C1001      C1002   1.404       .  A
C1002      N1003   1.437       .  S
N1003      H1007   1.045       .  S
N1003      H1008   1.045       .  S
N1006      H1009   1.040       .  S
N1006      H1010   1.046       .  S
C1011      C1012   1.405       .  A
C1011      C1016   1.396       .  A
C1011      H1018   1.076       .  S
C1012      C1013   1.419       .  A
C1013      C1014   1.410       .  A
C1013      N1020   1.436       .  S
C1014      C1015   1.406       .  A
C1014      H1019   1.084       .  S
C1015      C1016   1.411       .  A
C1016      N1017   1.434       .  S
N1017      H1021   1.045       .  S
N1017      H1022   1.040       .  S
N1020      H1023   1.040       .  S
N1020      H1024   1.046       .  S
C1025      C1026   1.411       .  A
C1025      C1030   1.420       .  A
C1025      H1032   1.083       .  S
C1027      C1028   1.414       .  A
C1027      N1034   1.429       .  S
C1028      H1033   1.084       .  S
C1029      C1030   1.414       .  A
C1030      N1031   1.437       .  S
N1031      H1035   1.045       .  S
N1031      H1036   1.045       .  S
N1034      H1037   1.046       .  S
N1034      H1038   1.045       .  S
C1039      C1040   1.416       .  A
C1039      C1044   1.414       .  A
C1039      H1046   1.082       .  S
C1041      C1042   1.409       .  A
C1041      N1048   1.430       .  S
C1042      H1047   1.084       .  S
C1043      C1044   1.417       .  A
C1044      N1045   1.438       .  S
N1045      H1049   1.045       .  S
N1045      H1050   1.043       .  S
N1048      H1051   1.044       .  S
N1048      H1052   1.041       .  S
C1053      C1058   1.413       .  A
C1053      H1060   1.083       .  S
C1054      C1055   1.411       .  A
C1055      C1056   1.415       .  A
C1055      N1062   1.437       .  S
C1056      C1057   1.408       .  A
C1056      H1061   1.084       .  S
C1058      N1059   1.436       .  S
N1059      H1063   1.044       .  S
N1059      H1064   1.045       .  S
N1062      H1065   1.046       .  S
N1062      H1066   1.046       .  S
C1067      C1072   1.414       .  A
C1067      H1074   1.084       .  S
C1068      C1069   1.421       .  A
C1069      C1070   1.410       .  A
C1069      N1076   1.437       .  S
C1070      C1071   1.405       .  A
C1070      H1075   1.084       .  S
C1072      N1073   1.438       .  S
N1073      H1077   1.045       .  S
N1073      H1078   1.044       .  S
N1076      H1079   1.040       .  S
N1076      H1080   1.045       .  S
