geometry optimzed in LAMMPS
_audit_creation_date              2020-11-30 
_audit_creation_method            'lammps2cif' 
_symmetry_space_group_name_H-M    'P1' 
_symmetry_Int_Tables_number       1 
_symmetry_cell_setting            triclinic 
loop_ 
_symmetry_equiv_pos_as_xyz 
  x,y,z 
_cell_length_a                    50.59070624903974 
_cell_length_b                    50.72728946068888 
_cell_length_c                    84.65703691957202 
_cell_angle_alpha                 89.6681399747589 
_cell_angle_beta                  89.96639176731607 
_cell_angle_gamma                 91.27443364139998 
loop_ 
_atom_site_label 
_atom_site_type_symbol 
_atom_site_fract_x 
_atom_site_fract_y 
_atom_site_fract_z 
_atom_site_charge 
O1          O  0.13728808  0.15147280  0.76881277    -0.73100
O2          O  0.08876367  0.09498294  0.75165536    -0.74080
O3          O  0.13660247  0.09526453  0.76911290    -0.62700
O4          O  0.08954284  0.15089061  0.75141206    -0.71110
O5          O  0.11174228  0.15118758  0.72876785    -0.70660
O6          O  0.15867129  0.09558495  0.74642624    -0.61910
O7          O  0.11088228  0.09506595  0.72898509    -0.74420
O8          O  0.15948123  0.15146429  0.74616773    -0.73200
Cu9        Cu  0.11223456  0.12313338  0.76103143     1.04560
Cu10       Cu  0.13601079  0.12331415  0.73681262     1.04330
C11         C  0.15607576  0.16039296  0.76008523     0.93100
C12         C  0.09202694  0.08621748  0.73768365     0.92240
C13         C  0.15517280  0.08670110  0.76044681     0.84390
C14         C  0.09318944  0.15982299  0.73741423     0.90660
O15         O  0.38654897  0.09906502  0.72885531    -0.73100
O16         O  0.33958298  0.15423156  0.74670284    -0.74080
O17         O  0.38745163  0.15526716  0.72933218    -0.62700
O18         O  0.33871654  0.09835503  0.74615887    -0.71110
O19         O  0.36075272  0.09746395  0.76883191    -0.70660
O20         O  0.40944350  0.15456571  0.75202233    -0.61910
O21         O  0.36149864  0.15374201  0.76941892    -0.74420
O22         O  0.40861995  0.09863373  0.75152128    -0.73200
Cu23       Cu  0.36227016  0.12676867  0.73698715     1.04560
Cu24       Cu  0.38588898  0.12609704  0.76123392     1.04330
C25         C  0.40500686  0.09009041  0.73749824     0.93100
C26         C  0.34301886  0.16265825  0.76076755     0.92240
C27         C  0.40623173  0.16384728  0.73810422     0.84390
C28         C  0.34203537  0.08886804  0.76001019     0.90660
N29         N  0.05312188  0.20563847  0.71507347    -0.27440
N30         N  0.04010303  0.20422374  0.72859208    -0.35300
C31         C  0.05311359  0.18878839  0.73872152     0.00900
C32         C  0.07540359  0.17988507  0.73124788     0.06920
C33         C  0.07498097  0.19105287  0.71626675    -0.06180
H34         H  0.04572270  0.18276199  0.75021510     0.07590
H35         H  0.08864145  0.18762333  0.70669604     0.08790
Cu36       Cu  0.00178112  0.21602688  0.73132131     0.44170
Cu37       Cu  0.03780408  0.22489470  0.69552152     0.41990
Cu38       Cu  0.46529399  0.22830118  0.69631098     0.43880
N39         N  0.46214486  0.20704207  0.72924547    -0.34830
N40         N  0.44875947  0.20951701  0.71594839    -0.29080
C41         C  0.42575455  0.19576002  0.71727630    -0.05180
C42         C  0.42493645  0.18406363  0.73212152     0.07030
C43         C  0.44820063  0.19182189  0.73937833     0.00830
H44         H  0.41162297  0.19299232  0.70780915     0.08480
H45         H  0.45563878  0.18480630  0.75058685     0.07560
N46         N  0.48962090  0.24958084  0.68081762    -0.36280
N47         N  0.01571405  0.24827888  0.68050159    -0.28460
C48         C  0.02537857  0.26655393  0.67033850    -0.03700
C49         C  0.00442127  0.28031176  0.66410924     0.04910
C50         C  0.48207283  0.26872736  0.67085849     0.03010
H51         H  0.04618657  0.26972461  0.66798063     0.08110
H52         H  0.46186366  0.27478693  0.66930646     0.06950
N53         N  0.04903173  0.04207948  0.71513739    -0.27440
N54         N  0.03598670  0.04354230  0.72861323    -0.35300
C55         C  0.05017672  0.05803215  0.73888821     0.00900
C56         C  0.07325694  0.06633267  0.73154895     0.06920
C57         C  0.07206902  0.05573301  0.71649930    -0.06180
H58         H  0.04301968  0.06421393  0.75030118     0.07590
H59         H  0.08594743  0.05922263  0.70694486     0.08790
Cu60       Cu  0.99644657  0.03419634  0.73096059     0.44170
Cu61       Cu  0.03211257  0.02471231  0.69530123     0.41990
Cu62       Cu  0.45948684  0.02475227  0.69569298     0.43880
N63         N  0.45794898  0.04569445  0.72856832    -0.34830
N64         N  0.44454360  0.04406916  0.71521313    -0.29080
C65         C  0.42271338  0.05867362  0.71646726    -0.05180
C66         C  0.42269468  0.07003842  0.73132403     0.07030
C67         C  0.44519578  0.06123563  0.73866153     0.00830
H68         H  0.40879053  0.06197790  0.70700218     0.08480
H69         H  0.45290788  0.06742961  0.75000159     0.07560
N70         N  0.48197508  0.50314456  0.68005329    -0.36280
N71         N  0.00815871  0.50349909  0.67975132    -0.28460
C72         C  0.01630820  0.48525908  0.66947838    -0.03700
C73         C  0.99428088  0.47288245  0.66305501     0.04910
C74         C  0.47286165  0.48453118  0.67005531     0.03010
H75         H  0.03671391  0.48005873  0.66769478     0.08110
H76         H  0.45226192  0.47880099  0.66872351     0.06950
N77         N  0.30198913  0.20743606  0.78308829    -0.27440
N78         N  0.28896806  0.20570228  0.76959609    -0.35300
C79         C  0.30238903  0.19074126  0.75951096     0.00900
C80         C  0.32494463  0.18237559  0.76696128     0.06920
C81         C  0.32425807  0.19342645  0.78191048    -0.06180
H82         H  0.29505876  0.18451361  0.74808859     0.07590
H83         H  0.33802665  0.19025888  0.79147385     0.08790
Cu84       Cu  0.25013207  0.21577200  0.76680184     0.44170
Cu85       Cu  0.28603894  0.22627345  0.80258020     0.41990
Cu86       Cu  0.21332091  0.22588242  0.80160629     0.43880
N87         N  0.21092479  0.20484580  0.76885660    -0.34830
N88         N  0.19744146  0.20670622  0.78214516    -0.29080
C89         C  0.17487953  0.19226348  0.78088390    -0.05180
C90         C  0.17445729  0.18073065  0.76608286     0.07030
C91         C  0.19749197  0.18928457  0.75877912     0.00830
H92         H  0.16076137  0.18905677  0.79034437     0.08480
H93         H  0.20508624  0.18276877  0.74753978     0.07560
N94         N  0.23632410  0.24814479  0.81704870    -0.36280
N95         N  0.26246446  0.24829978  0.81752159    -0.28460
C96         C  0.27078771  0.26698582  0.82769986    -0.03700
C97         C  0.24889062  0.27926882  0.83393252     0.04910
C98         C  0.22741588  0.26672783  0.82682887     0.03010
H99         H  0.29135342  0.27196437  0.82989711     0.08110
H100        H  0.20684605  0.27181417  0.82777906     0.06950
N101        N  0.30083756  0.04093858  0.78137000    -0.27440
N102        N  0.28722048  0.04387263  0.76820422    -0.35300
C103        C  0.30054266  0.06022449  0.75840966     0.00900
C104        C  0.32364257  0.06821465  0.76577538     0.06920
C105        C  0.32337885  0.05551087  0.78032049    -0.06180
H106        H  0.29284401  0.06759349  0.74734891     0.07590
H107        H  0.33762911  0.05791807  0.78975650     0.08790
Cu108      Cu  0.24798242  0.03320171  0.76610942     0.44170
Cu109      Cu  0.28503684  0.02001736  0.80037279     0.41990
Cu110      Cu  0.21228936  0.02198412  0.80196725     0.43880
N111        N  0.20925507  0.04346899  0.76907414    -0.34830
N112        N  0.19633321  0.04148321  0.78261104    -0.29080
C113        C  0.17406564  0.05552415  0.78151599    -0.05180
C114        C  0.17328957  0.06687723  0.76657533     0.07030
C115        C  0.19578855  0.05865873  0.75904504     0.00830
H116        H  0.16033828  0.05846289  0.79111786     0.08480
H117        H  0.20302769  0.06508393  0.74759154     0.07560
N118        N  0.23539516  0.49798357  0.81615347    -0.36280
N119        N  0.26144876  0.49694111  0.81527039    -0.28460
C120        C  0.26973710  0.47728370  0.82459211    -0.03700
C121        C  0.24796509  0.46510162  0.83171278     0.04910
C122        C  0.22653113  0.47914684  0.82621126     0.03010
H123        H  0.29015102  0.47159017  0.82558548     0.08110
H124        H  0.20592482  0.47613869  0.82907713     0.06950
C125        C  0.99941391  0.37671793  0.62491701    -0.02640
O126        O  0.27821334  0.01474829  0.47956368    -0.73100
O127        O  0.22224423  0.46565986  0.49734292    -0.74080
O128        O  0.22190819  0.01330130  0.47967778    -0.62700
O129        O  0.27828330  0.46707032  0.49727930    -0.71110
O130        O  0.27832521  0.48921955  0.51983117    -0.70660
O131        O  0.22201489  0.03544771  0.50223086    -0.61910
O132        O  0.22200923  0.48778404  0.51989892    -0.74420
O133        O  0.27807512  0.03683100  0.50213445    -0.73200
Cu134      Cu  0.25016581  0.48937981  0.48769269     1.04560
Cu135      Cu  0.25010901  0.01313650  0.51179687     1.04330
C136        C  0.28691109  0.03365582  0.48813984     0.93100
C137        C  0.21334473  0.46886479  0.51131673     0.92240
C138        C  0.21313118  0.03177563  0.48827035     0.84390
C139        C  0.28711143  0.47073272  0.51125624     0.90660
O140        O  0.22121122  0.26266599  0.52010882    -0.73100
O141        O  0.27811102  0.21672046  0.50320293    -0.74080
O142        O  0.27753559  0.26411761  0.52079331    -0.62700
O143        O  0.22203070  0.21532393  0.50247801    -0.71110
O144        O  0.22261602  0.23784498  0.47990450    -0.70660
O145        O  0.27800284  0.28658237  0.49819899    -0.61910
O146        O  0.27895049  0.23929033  0.48064291    -0.74420
O147        O  0.22201078  0.28517164  0.49752613    -0.73200
Cu148      Cu  0.24969235  0.23887042  0.51242240     1.04560
Cu149      Cu  0.25041728  0.26303905  0.48829430     1.04330
C150        C  0.21271638  0.28128602  0.51140488     0.93100
C151        C  0.28749123  0.22070005  0.48935467     0.92240
C152        C  0.28646828  0.28316583  0.51226526     0.84390
C153        C  0.21360177  0.21880657  0.48840202     0.90660
N154        N  0.16884868  0.17682389  0.46541700    -0.27440
N155        N  0.17021854  0.16349350  0.47883468    -0.35300
C156        C  0.18510125  0.17714738  0.48917529     0.00900
C157        C  0.19377524  0.20019370  0.48196605     0.06920
C158        C  0.18299263  0.19952860  0.46690072    -0.06180
H159        H  0.19107876  0.16972874  0.50060846     0.07590
H160        H  0.18649178  0.21363936  0.45745555     0.08790
Cu161      Cu  0.15967003  0.12430729  0.48118349     0.44170
Cu162      Cu  0.15053846  0.16076733  0.44553512     0.41990
Cu163      Cu  0.15019326  0.08825842  0.44583159     0.43880
N164        N  0.16980333  0.08548302  0.47902693    -0.34830
N165        N  0.16820991  0.07234133  0.46562870    -0.29080
C166        C  0.18217856  0.05013386  0.46704125    -0.05180
C167        C  0.19311807  0.04958804  0.48205032     0.07030
C168        C  0.18470209  0.07218285  0.48930917     0.00830
H169        H  0.18557329  0.03641420  0.45755319     0.08480
H170        H  0.19096454  0.07965594  0.50068687     0.07560
N171        N  0.12927641  0.11103806  0.42987501    -0.36280
N172        N  0.12942188  0.13714111  0.42967093    -0.28460
C173        C  0.11149590  0.14527464  0.41906318    -0.03700
C174        C  0.09955868  0.12329967  0.41223152     0.04910
C175        C  0.11123168  0.10198134  0.41946778     0.03010
H176        H  0.10624172  0.16562597  0.41724122     0.08110
H177        H  0.10597363  0.08137170  0.41790392     0.06950
N178        N  0.33385473  0.18135115  0.46727652    -0.27440
N179        N  0.33127982  0.16738769  0.48041947    -0.35300
C180        C  0.31569822  0.18010925  0.49052573     0.00900
C181        C  0.30784320  0.20315512  0.48338777     0.06920
C182        C  0.31983005  0.20349012  0.46865904    -0.06180
H183        H  0.30859582  0.17196192  0.50162332     0.07590
H184        H  0.31711952  0.21777505  0.45929147     0.08790
Cu185      Cu  0.34104048  0.12836407  0.48214217     0.44170
Cu186      Cu  0.35299794  0.16653637  0.44769002     0.41990
Cu187      Cu  0.34955097  0.09412218  0.44579024     0.43880
N188        N  0.33033984  0.08938394  0.47917602    -0.34830
N189        N  0.33147705  0.07690302  0.46554336    -0.29080
C190        C  0.31735342  0.05411215  0.46677325    -0.05180
C191        C  0.30679520  0.05252268  0.48189071     0.07030
C192        C  0.31559555  0.07510750  0.48939257     0.00830
H193        H  0.31367448  0.04061034  0.45713393     0.08480
H194        H  0.30979053  0.08182485  0.50097088     0.07560
N195        N  0.37172984  0.11817303  0.43048150    -0.36280
N196        N  0.37350670  0.14419712  0.43151362    -0.28460
C197        C  0.39238402  0.15323333  0.42155017    -0.03700
C198        C  0.40267148  0.13199979  0.41369891     0.04910
C199        C  0.38921480  0.11008769  0.41964733     0.03010
H200        H  0.39900463  0.17361298  0.42064785     0.08110
H201        H  0.39316755  0.08967229  0.41710600     0.06950
N202        N  0.16810835  0.42613524  0.53377018    -0.27440
N203        N  0.17000086  0.41310777  0.52036812    -0.35300
C204        C  0.18513724  0.42707724  0.51020465     0.00900
C205        C  0.19341293  0.45002315  0.51752622     0.06920
C206        C  0.18214480  0.44896054  0.53246799    -0.06180
H207        H  0.19153397  0.41995358  0.49883216     0.07590
H208        H  0.18522061  0.46288698  0.54195855     0.08790
Cu209      Cu  0.15958812  0.37394508  0.51794282     0.44170
Cu210      Cu  0.14909191  0.40947994  0.55332019     0.41990
Cu211      Cu  0.14821668  0.33683738  0.55310390     0.43880
N212        N  0.16939607  0.33500680  0.52021871    -0.34830
N213        N  0.16715485  0.32149365  0.53355288    -0.29080
C214        C  0.18103859  0.29923527  0.53226932    -0.05180
C215        C  0.19258028  0.29904165  0.51741208     0.07030
C216        C  0.18461887  0.32189350  0.51010724     0.00830
H217        H  0.18392166  0.28520313  0.54175307     0.08480
H218        H  0.19138428  0.32963818  0.49883709     0.07560
N219        N  0.12614132  0.35954746  0.56836313    -0.36280
N220        N  0.12655573  0.38564553  0.56849658    -0.28460
C221        C  0.10799780  0.39385408  0.57860470    -0.03700
C222        C  0.09500097  0.37196792  0.58500136     0.04910
C223        C  0.10726572  0.35055108  0.57834446     0.03010
H224        H  0.10327055  0.41429992  0.58046532     0.08110
H225        H  0.10240066  0.32990406  0.58021476     0.06950
N226        N  0.33204308  0.43037006  0.53403067    -0.27440
N227        N  0.33013182  0.41689448  0.52076423    -0.35300
C228        C  0.31517473  0.43004583  0.51044164     0.00900
C229        C  0.30704684  0.45289078  0.51753717     0.06920
C230        C  0.31820833  0.45264012  0.53249320    -0.06180
H231        H  0.30869967  0.42234123  0.49916092     0.07590
H232        H  0.31510692  0.46665509  0.54186356     0.08790
Cu233      Cu  0.34005500  0.37796696  0.51887124     0.44170
Cu234      Cu  0.35049828  0.41492452  0.55381900     0.41990
Cu235      Cu  0.34941108  0.34230784  0.55465406     0.43880
N236        N  0.32958466  0.33880260  0.52148862    -0.34830
N237        N  0.33100033  0.32574283  0.53499536    -0.29080
C238        C  0.31697386  0.30293570  0.53367618    -0.05180
C239        C  0.30621565  0.30193005  0.51861408     0.07030
C240        C  0.31478203  0.32487749  0.51124530     0.00830
H241        H  0.31355432  0.28898697  0.54321613     0.08480
H242        H  0.30879048  0.33203889  0.49975562     0.07560
N243        N  0.37164080  0.36610613  0.56983651    -0.36280
N244        N  0.37212672  0.39222777  0.56946712    -0.28460
C245        C  0.39117457  0.40122349  0.57926209    -0.03700
C246        C  0.40312905  0.37980161  0.58612093     0.04910
C247        C  0.39033005  0.35788373  0.57991541     0.03010
H248        H  0.39705014  0.42174484  0.58048963     0.08110
H249        H  0.39545923  0.33750014  0.58173738     0.06950
O250        O  0.38963486  0.40320205  0.27039093    -0.73100
O251        O  0.34068841  0.34726469  0.25269072    -0.74080
O252        O  0.38835491  0.34685411  0.27026262    -0.62700
O253        O  0.34187932  0.40318568  0.25283388    -0.71110
O254        O  0.36419933  0.40368963  0.23023432    -0.70660
O255        O  0.41067252  0.34737170  0.24766357    -0.61910
O256        O  0.36302926  0.34753453  0.23009993    -0.74420
O257        O  0.41186847  0.40330921  0.24776701    -0.73200
Cu258      Cu  0.36432978  0.37511897  0.26232977     1.04560
Cu259      Cu  0.38826925  0.37549424  0.23817459     1.04330
C260        C  0.40854447  0.41208042  0.26173129     0.93100
C261        C  0.34405588  0.33864084  0.23869038     0.92240
C262        C  0.40686652  0.33818554  0.26158980     0.84390
C263        C  0.34558148  0.41223950  0.23886918     0.90660
O264        O  0.13737072  0.34552416  0.23009961    -0.73100
O265        O  0.09109572  0.40159475  0.24764829    -0.74080
O266        O  0.13856725  0.40167958  0.22982665    -0.62700
O267        O  0.08989525  0.34564739  0.24792620    -0.71110
O268        O  0.11234234  0.34558219  0.27045743    -0.70660
O269        O  0.16107740  0.40161717  0.25233729    -0.61910
O270        O  0.11361803  0.40182546  0.27015592    -0.74420
O271        O  0.15987055  0.34569995  0.25261557    -0.73200
Cu272      Cu  0.11339237  0.37360011  0.23810960     1.04560
Cu273      Cu  0.13755253  0.37367765  0.26216563     1.04330
C274        C  0.15606871  0.33686090  0.23867303     0.93100
C275        C  0.09499390  0.41056335  0.26155140     0.92240
C276        C  0.15762299  0.41043277  0.23833078     0.84390
C277        C  0.09331758  0.33681337  0.26193123     0.90660
N278        N  0.45077732  0.45810798  0.28367492    -0.27440
N279        N  0.46402840  0.45589477  0.27032004    -0.35300
C280        C  0.45026768  0.44040790  0.26036750     0.00900
C281        C  0.42723164  0.43217961  0.26777970     0.06920
C282        C  0.42800759  0.44387761  0.28255849    -0.06180
H283        H  0.45762885  0.43372661  0.24910773     0.07590
H284        H  0.41392796  0.44099944  0.29207149     0.08790
Cu285      Cu  0.00336011  0.46602821  0.26785196     0.44170
Cu286      Cu  0.46729780  0.47778936  0.30291327     0.41990
Cu287      Cu  0.04015562  0.47637906  0.30306068     0.43880
N288        N  0.04195571  0.45492199  0.27030980    -0.34830
N289        N  0.05532309  0.45675583  0.28367009    -0.29080
C290        C  0.07725449  0.44226456  0.28246751    -0.05180
C291        C  0.07735590  0.43075269  0.26764163     0.07030
C292        C  0.05480346  0.43935862  0.26027747     0.00830
H293        H  0.09117601  0.43910609  0.29195221     0.08480
H294        H  0.04709865  0.43297057  0.24897376     0.07560
N295        N  0.01768472  0.99941608  0.31800404    -0.36280
N296        N  0.49154413  0.00001615  0.31789174    -0.28460
C297        C  0.48367934  0.01863219  0.32800096    -0.03700
C298        C  0.00583115  0.03059709  0.33469147     0.04910
C299        C  0.02704184  0.01760007  0.32820559     0.03010
H300        H  0.46329386  0.02380829  0.32989789     0.08110
H301        H  0.04779878  0.02091679  0.33059814     0.06950
N302        N  0.30180138  0.29390634  0.21596644    -0.27440
N303        N  0.28855837  0.29524906  0.22937850    -0.35300
C304        C  0.30234160  0.31010728  0.23966925     0.00900
C305        C  0.32538059  0.31875697  0.23241446     0.06920
C306        C  0.32457214  0.30800256  0.21739079    -0.06180
H307        H  0.29500386  0.31609685  0.25107868     0.07590
H308        H  0.33859628  0.31153160  0.20791710     0.08790
Cu309      Cu  0.24930484  0.28456254  0.23166021     0.44170
Cu310      Cu  0.28549317  0.27579708  0.19615575     0.41990
Cu311      Cu  0.21276611  0.27459280  0.19623719     0.43880
N312        N  0.21023710  0.29421608  0.22941253    -0.34830
N313        N  0.19691784  0.29250983  0.21602818    -0.29080
C314        C  0.17451364  0.30621316  0.21744885    -0.05180
C315        C  0.17402425  0.31707176  0.23244525     0.07030
C316        C  0.19686021  0.30889384  0.23968183     0.00830
H317        H  0.16059289  0.30947185  0.20797651     0.08480
H318        H  0.20442774  0.31517682  0.25103880     0.07560
N319        N  0.23589411  0.25385931  0.18044922    -0.36280
N320        N  0.26206146  0.25443203  0.18036092    -0.28460
C321        C  0.27059725  0.23659011  0.16994808    -0.03700
C322        C  0.24883709  0.22406934  0.16314139     0.04910
C323        C  0.22718789  0.23557621  0.17012621     0.03010
H324        H  0.29113627  0.23173675  0.16836907     0.08110
H325        H  0.20658680  0.23017641  0.16841728     0.06950
N326        N  0.44609461  0.29100247  0.28352859    -0.27440
N327        N  0.45982529  0.29355001  0.27031885    -0.35300
C328        C  0.44720959  0.30958741  0.26034779     0.00900
C329        C  0.42444561  0.31778697  0.26761914     0.06920
C330        C  0.42417948  0.30552992  0.28231321    -0.06180
H331        H  0.45521136  0.31658074  0.24919116     0.07590
H332        H  0.41001850  0.30820249  0.29171950     0.08790
Cu333      Cu  0.99856958  0.28276879  0.26824764     0.44170
Cu334      Cu  0.46101156  0.27063870  0.30280947     0.41990
Cu335      Cu  0.03383558  0.27276156  0.30415316     0.43880
N336        N  0.03776871  0.29315945  0.27098496    -0.34830
N337        N  0.05065445  0.29160026  0.28451655    -0.29080
C338        C  0.07344260  0.30579519  0.28325473    -0.05180
C339        C  0.07459504  0.31681581  0.26821552     0.07030
C340        C  0.05176786  0.30821621  0.26079987     0.00830
H341        H  0.08725490  0.30916123  0.29282354     0.08480
H342        H  0.04468967  0.31436994  0.24932555     0.07560
N343        N  0.00980167  0.25006988  0.31922738    -0.36280
N344        N  0.48365073  0.24878531  0.31841132    -0.28460
C345        C  0.47460632  0.22980302  0.32831968    -0.03700
C346        C  0.99597386  0.21892281  0.33589297     0.04910
C347        C  0.01796447  0.23215192  0.32984772     0.03010
H348        H  0.45405960  0.22374891  0.32951594     0.08110
H349        H  0.03844062  0.22802006  0.33232585     0.06950
N350        N  0.30501584  0.45739434  0.21636137    -0.27440
N351        N  0.29143856  0.45510326  0.22964363    -0.35300
C352        C  0.30464145  0.44000741  0.23986964     0.00900
C353        C  0.32762913  0.43217208  0.23269132     0.06920
C354        C  0.32740475  0.44365873  0.21778670    -0.06180
H355        H  0.29687844  0.43324092  0.25113323     0.07590
H356        H  0.34151701  0.44084421  0.20837104     0.08790
Cu357      Cu  0.25232054  0.46469867  0.23161657     0.44170
Cu358      Cu  0.28944153  0.47612631  0.19669326     0.41990
Cu359      Cu  0.21666466  0.47399932  0.19577468     0.43880
N360        N  0.21314407  0.45399396  0.22903700    -0.34830
N361        N  0.20012020  0.45543911  0.21554833    -0.29080
C362        C  0.17734671  0.44127192  0.21692102    -0.05180
C363        C  0.17632811  0.43037793  0.23198786     0.07030
C364        C  0.19923150  0.43901789  0.23931140     0.00830
H365        H  0.16345242  0.43782931  0.20740337     0.08480
H366        H  0.20639481  0.43297215  0.25078703     0.07560
N367        N  0.24040856  0.99621598  0.18034594    -0.36280
N368        N  0.26658299  0.99724937  0.18087005    -0.28460
C369        C  0.27548438  0.01618798  0.17089747    -0.03700
C370        C  0.25398734  0.02735015  0.16363339     0.04910
C371        C  0.23207709  0.01435653  0.16991860     0.03010
H372        H  0.29598497  0.02241571  0.16971614     0.08110
H373        H  0.21158596  0.01902010  0.16790317     0.06950
C374        C  0.99960661  0.12370539  0.37609532    -0.02640
O375        O  0.02862526  0.23680841  0.02163111    -0.73100
O376        O  0.47254738  0.28382644  0.00455731    -0.74080
O377        O  0.47225987  0.23570547  0.02176997    -0.62700
O378        O  0.02858360  0.28480583  0.00436558    -0.71110
O379        O  0.02842745  0.26314705  0.98163937    -0.70660
O380        O  0.47221320  0.21417046  0.99900424    -0.61910
O381        O  0.47205466  0.26226524  0.98180165    -0.74420
O382        O  0.02828658  0.21516289  0.99890364    -0.73200
Cu383      Cu  0.00050285  0.26107841  0.01386257     1.04560
Cu384      Cu  0.00022820  0.23789098  0.98955504     1.04330
C385        C  0.03732384  0.21853081  0.01286410     0.93100
C386        C  0.46349656  0.28059059  0.99059811     0.92240
C387        C  0.46341206  0.21708415  0.01301933     0.84390
C388        C  0.03737297  0.28175575  0.99035231     0.90660
O389        O  0.47410931  0.48650594  0.98112851    -0.73100
O390        O  0.03089181  0.03514305  0.99806586    -0.74080
O391        O  0.03057214  0.48737447  0.98079333    -0.62700
O392        O  0.47476032  0.03419722  0.99843090    -0.71110
O393        O  0.47480486  0.01204639  0.02113201    -0.70660
O394        O  0.03058049  0.46541775  0.00356075    -0.61910
O395        O  0.03120227  0.01310328  0.02080503    -0.74420
O396        O  0.47455631  0.46444818  0.00385949    -0.73200
Cu397      Cu  0.00258520  0.01162340  0.98881818     1.04560
Cu398      Cu  0.00280561  0.48795373  0.01311477     1.04330
C399        C  0.46537846  0.46774462  0.98994474     0.93100
C400        C  0.03995965  0.03188011  0.01201059     0.92240
C401        C  0.03933891  0.46890519  0.98952514     0.84390
C402        C  0.46594079  0.03050813  0.01244503     0.90660
N403        N  0.41915882  0.06964366  0.03457005    -0.27440
N404        N  0.42143015  0.08337168  0.02131381    -0.35300
C405        C  0.43732480  0.07083635  0.01129807     0.00900
C406        C  0.44572235  0.04812499  0.01857051     0.06920
C407        C  0.43373552  0.04781059  0.03332197    -0.06180
H408        H  0.44402529  0.07881417  0.00007130     0.07590
H409        H  0.43655202  0.03360519  0.04272002     0.08790
Cu410      Cu  0.41031498  0.12192080  0.01902653     0.44170
Cu411      Cu  0.39880962  0.08416552  0.05393088     0.41990
Cu412      Cu  0.39965049  0.15670513  0.05465140     0.43880
N413        N  0.42014932  0.16116271  0.02165887    -0.34830
N414        N  0.41831170  0.17387849  0.03517136    -0.29080
C415        C  0.43225409  0.19677386  0.03402636    -0.05180
C416        C  0.44341114  0.19820466  0.01907000     0.07030
C417        C  0.43515362  0.17541688  0.01157187     0.00830
H418        H  0.43541380  0.21044793  0.04363864     0.08480
H419        H  0.44158871  0.16853032  0.00015288     0.07560
N420        N  0.37696833  0.13269890  0.06961108    -0.36280
N421        N  0.37631870  0.10658286  0.06924675    -0.28460
C422        C  0.35709659  0.09756752  0.07901686    -0.03700
C423        C  0.34522908  0.11900493  0.08582108     0.04910
C424        C  0.35829862  0.14090313  0.07965374     0.03010
H425        H  0.35129023  0.07703576  0.08042904     0.08110
H426        H  0.35353675  0.16131821  0.08159194     0.06950
N427        N  0.08478647  0.42808737  0.96751936    -0.27440
N428        N  0.08247894  0.41486275  0.98095057    -0.35300
C429        C  0.06721390  0.42817229  0.99093750     0.00900
C430        C  0.05923994  0.45087253  0.98346648     0.06920
C431        C  0.07084451  0.45037138  0.96861513    -0.06180
H432        H  0.06049625  0.42068750  0.00227859     0.07590
H433        H  0.06808497  0.46427635  0.95905010     0.08790
Cu434      Cu  0.09229503  0.37598669  0.98354785     0.44170
Cu435      Cu  0.10420189  0.41217533  0.94824359     0.41990
Cu436      Cu  0.10267528  0.33957075  0.94838356     0.43880
N437        N  0.08147569  0.33689910  0.98130762    -0.34830
N438        N  0.08335831  0.32364037  0.96798624    -0.29080
C439        C  0.06901871  0.30103217  0.96933225    -0.05180
C440        C  0.05755531  0.30033922  0.98421200     0.07030
C441        C  0.06602664  0.32326875  0.99147116     0.00830
H442        H  0.06588990  0.28700832  0.95989833     0.08480
H443        H  0.05956381  0.33063073  0.00277330     0.07560
N444        N  0.12548712  0.36282489  0.93311106    -0.36280
N445        N  0.12619287  0.38891465  0.93315260    -0.28460
C446        C  0.14514470  0.39754228  0.92312642    -0.03700
C447        C  0.15694088  0.37591463  0.91633977     0.04910
C448        C  0.14390533  0.35425687  0.92301528     0.03010
H449        H  0.15090955  0.41806533  0.92169187     0.08110
H450        H  0.14812607  0.33370167  0.92113094     0.06950
N451        N  0.08565389  0.07402264  0.03410187    -0.27440
N452        N  0.08342734  0.08745026  0.02077458    -0.35300
C453        C  0.06819048  0.07367975  0.01066873     0.00900
C454        C  0.06017232  0.05048742  0.01798080     0.06920
C455        C  0.07172795  0.05117255  0.03282566    -0.06180
H456        H  0.06137907  0.08116701  0.99942489     0.07590
H457        H  0.06876727  0.03704775  0.04232298     0.08790
Cu458      Cu  0.09293110  0.12691159  0.01863722     0.44170
Cu459      Cu  0.10426534  0.09029555  0.05373389     0.41990
Cu460      Cu  0.10277086  0.16265452  0.05439126     0.43880
N461        N  0.08176874  0.16533134  0.02138419    -0.34830
N462        N  0.08352141  0.17826306  0.03485849    -0.29080
C463        C  0.06900404  0.20016608  0.03374191    -0.05180
C464        C  0.05755538  0.20072707  0.01886198     0.07030
C465        C  0.06623124  0.17846295  0.01136643     0.00830
H466        H  0.06573994  0.21373647  0.04332482     0.08480
H467        H  0.05989431  0.17113082  0.99997055     0.07560
N468        N  0.12429422  0.13984663  0.07011475    -0.36280
N469        N  0.12483268  0.11377931  0.06981343    -0.28460
C470        C  0.14257435  0.10547456  0.08045000    -0.03700
C471        C  0.15361068  0.12725476  0.08796582     0.04910
C472        C  0.14167529  0.14871643  0.08099051     0.03010
H473        H  0.14809120  0.08513397  0.08198324     0.08110
H474        H  0.14609665  0.16933314  0.08319116     0.06950
N475        N  0.41829020  0.42605849  0.96846828    -0.27440
N476        N  0.42085183  0.41272689  0.98181161    -0.35300
C477        C  0.43681223  0.42627551  0.99161413     0.00900
C478        C  0.44496874  0.44922993  0.98411036     0.06920
C479        C  0.43275477  0.44864707  0.96944548    -0.06180
H480        H  0.44379286  0.41884265  0.00283308     0.07590
H481        H  0.43539068  0.46275684  0.95991016     0.08790
Cu482      Cu  0.41029676  0.37362080  0.98456509     0.44170
Cu483      Cu  0.39774892  0.41018358  0.94936167     0.41990
Cu484      Cu  0.39739910  0.33748223  0.94984122     0.43880
N485        N  0.42024781  0.33478439  0.98221165    -0.34830
N486        N  0.41750210  0.32155810  0.96890633    -0.29080
C487        C  0.43143711  0.29925864  0.96997216    -0.05180
C488        C  0.44350372  0.29873409  0.98468039     0.07030
C489        C  0.43582058  0.32145624  0.99210146     0.00830
H490        H  0.43383452  0.28533471  0.96047257     0.08480
H491        H  0.44289291  0.32891326  0.00331658     0.07560
N492        N  0.37440847  0.36031737  0.93497015    -0.36280
N493        N  0.37452701  0.38640462  0.93470321    -0.28460
C494        C  0.35565586  0.39446018  0.92469094    -0.03700
C495        C  0.34300132  0.37244994  0.91831036     0.04910
C496        C  0.35544704  0.35118152  0.92519582     0.03010
H497        H  0.35103618  0.41489008  0.92255123     0.08110
H498        H  0.35025969  0.33051466  0.92395176     0.06950
C499        C  0.25098149  0.12560932  0.12639938    -0.02640
C500        C  0.25137189  0.37330733  0.87502975    -0.02640
C501        C  0.30160301  0.39242656  0.90813672    -0.26470
C502        C  0.31973186  0.37193061  0.90757325    -0.14540
C503        C  0.31505032  0.35110303  0.89696443     0.36090
C504        C  0.29277789  0.35120388  0.88715680    -0.25920
C505        C  0.27533465  0.37264415  0.88668745    -0.15160
C506        C  0.27954462  0.39288240  0.89806529     0.37170
N507        N  0.26172192  0.41434879  0.89924686    -0.89410
H508        H  0.30439880  0.40827531  0.91653126     0.18290
H509        H  0.28951833  0.33391145  0.88002656     0.18280
N510        N  0.33320345  0.32994578  0.89571708    -0.88440
H511        H  0.27242868  0.43201870  0.89764101     0.35660
H512        H  0.25392632  0.41429506  0.91068830     0.40750
H513        H  0.34005831  0.32938224  0.88407006     0.40370
H514        H  0.32288897  0.31226140  0.89805814     0.35260
C515        C  0.19674613  0.14652978  0.09642580    -0.26470
C516        C  0.17655323  0.12761274  0.09888479    -0.14540
C517        C  0.17946779  0.10884982  0.11115048     0.36090
C518        C  0.20334046  0.10807637  0.11953568    -0.25920
C519        C  0.22467032  0.12602821  0.11654693    -0.15160
C520        C  0.22028275  0.14623461  0.10516791     0.37170
N521        N  0.23999207  0.16635922  0.10216331    -0.89410
H522        H  0.19461707  0.16141494  0.08730956     0.18290
H523        H  0.20415876  0.09397259  0.12910662     0.18280
N524        N  0.15846247  0.09086852  0.11589964    -0.88440
H525        H  0.24512712  0.16574444  0.09020669     0.35660
H526        H  0.23163368  0.18464480  0.10436161     0.40750
H527        H  0.14069379  0.09526455  0.11036779     0.40370
H528        H  0.15489426  0.09393410  0.12791308     0.35260
C529        C  0.19818904  0.35500882  0.90690141    -0.26470
C530        C  0.18043973  0.37577050  0.90576530    -0.14540
C531        C  0.18586435  0.39638826  0.89494162     0.36090
C532        C  0.20895074  0.39594456  0.88573498    -0.25920
C533        C  0.22631761  0.37436530  0.88600777    -0.15160
C534        C  0.22088485  0.35418183  0.89738531     0.37170
N535        N  0.23829471  0.33247917  0.89923609    -0.89410
H536        H  0.19470089  0.33930518  0.91542280     0.18290
H537        H  0.21319683  0.41316587  0.87860068     0.18280
N538        N  0.16776220  0.41765653  0.89311046    -0.88440
H539        H  0.24508903  0.33235517  0.91089763     0.35660
H540        H  0.22745221  0.31498734  0.89736804     0.40750
H541        H  0.15008564  0.40967751  0.88863211     0.40370
H542        H  0.17469811  0.43137753  0.88473692     0.35260
C543        C  0.32411052  0.12313786  0.11187414    -0.26470
C544        C  0.32123347  0.11899572  0.09568914    -0.14540
C545        C  0.29561756  0.11563999  0.08928921     0.36090
C546        C  0.27355854  0.11733474  0.09923410    -0.25920
C547        C  0.27592432  0.12344998  0.11549098    -0.15160
C548        C  0.30203176  0.12477349  0.12181365     0.37170
N549        N  0.30639016  0.12811694  0.13838192    -0.89250
H550        H  0.34376114  0.12513262  0.11689474     0.18290
H551        H  0.25447722  0.11342939  0.09393273     0.18280
N552        N  0.29104222  0.11050264  0.07280564    -0.88440
H553        H  0.31803130  0.14517035  0.14003142     0.35660
H554        H  0.31708087  0.11206019  0.14248971     0.40750
H555        H  0.30861798  0.10963074  0.06641338     0.40370
H556        H  0.28067992  0.12639158  0.06817732     0.35260
C557        C  0.25827966  0.07573402  0.16183917    -0.26470
C558        C  0.25409898  0.05174123  0.15411539    -0.14540
C559        C  0.25054584  0.05161143  0.13761856     0.36090
C560        C  0.25035308  0.07564124  0.12940268    -0.25920
C561        C  0.25249353  0.10037107  0.13709974    -0.15160
C562        C  0.25800735  0.09988117  0.15365386     0.37170
N563        N  0.26485876  0.12323696  0.16229237    -0.89410
H564        H  0.26204050  0.07574177  0.17444990     0.18290
H565        H  0.24758826  0.07502100  0.11671803     0.18280
N566        N  0.24695609  0.02765625  0.12877849    -0.88440
H567        H  0.28371677  0.12099903  0.16709534     0.35660
H568        H  0.25166282  0.12480742  0.17173140     0.40750
H569        H  0.24735740  0.51097063  0.13603011     0.40370
H570        H  0.26295059  0.02629987  0.12102021     0.35260
C571        C  0.48687161  0.17136273  0.34019568    -0.26470
C572        C  0.99572773  0.19551950  0.34633063    -0.14540
C573        C  0.00418338  0.19669767  0.36217158     0.36090
C574        C  0.00426729  0.17353573  0.37123508    -0.25920
C575        C  0.99802883  0.14837951  0.36484019    -0.15160
C576        C  0.48752378  0.14799925  0.34918186     0.37170
N577        N  0.47636180  0.12449646  0.34237206    -0.89410
H578        H  0.47941331  0.17055780  0.32819857     0.18290
H579        H  0.01035890  0.17522554  0.38342023     0.18280
N580        N  0.01217216  0.22098546  0.36965762    -0.88440
H581        H  0.48649382  0.12072100  0.33188347     0.35660
H582        H  0.45665355  0.12798817  0.33947103     0.40750
H583        H  0.01022918  0.23722908  0.36217341     0.40370
H584        H  0.03224410  0.21972614  0.37242897     0.35260
C585        C  0.22900786  0.18092938  0.15490309    -0.26470
C586        C  0.24881772  0.20037945  0.15290672    -0.14540
C587        C  0.26861269  0.19659729  0.14149088     0.36090
C588        C  0.26902863  0.17284253  0.13301865    -0.25920
C589        C  0.25044379  0.15202525  0.13583424    -0.15160
C590        C  0.22942874  0.15719091  0.14650951     0.37170
N591        N  0.20862578  0.13806289  0.14919802    -0.89410
H592        H  0.21335172  0.18371997  0.16342369     0.18290
H593        H  0.28368472  0.17130663  0.12383963     0.18280
N594        N  0.28793049  0.21714570  0.13824598    -0.88440
H595        H  0.19071137  0.14667875  0.14620322     0.35660
H596        H  0.20799668  0.13346228  0.16124468     0.40750
H597        H  0.27792266  0.23322052  0.13356465     0.40370
H598        H  0.30128627  0.21125808  0.12959365     0.35260
C599        C  0.48689359  0.05262804  0.35797500    -0.26470
C600        C  0.00588498  0.05291037  0.34598873    -0.14540
C601        C  0.02323355  0.07492941  0.34468864     0.36090
C602        C  0.02061340  0.09612890  0.35498174    -0.25920
C603        C  0.00058764  0.09707568  0.36669770    -0.15160
C604        C  0.48438767  0.07346090  0.36866368     0.37170
N605        N  0.46634921  0.06800411  0.38146517    -0.89410
H606        H  0.47406862  0.03535523  0.35939222     0.18290
H607        H  0.03384043  0.11294301  0.35319284     0.18280
N608        N  0.04277923  0.07728561  0.33249266    -0.88440
H609        H  0.44699813  0.06839702  0.37716298     0.35660
H610        H  0.46827685  0.08023346  0.39113504     0.40750
H611        H  0.03368628  0.07419968  0.32155142     0.40370
H612        H  0.05711828  0.06315395  0.33435955     0.35260
C613        C  0.45062596  0.14013495  0.41029266    -0.26470
C614        C  0.42649321  0.13201257  0.40366923    -0.14540
C615        C  0.42583569  0.12358972  0.38784047     0.36090
C616        C  0.44953960  0.12234534  0.37936682    -0.25920
C617        C  0.47451312  0.12718225  0.38646472    -0.15160
C618        C  0.47445755  0.13832502  0.40189261     0.37170
N619        N  0.99799707  0.14906605  0.40897346    -0.89410
H620        H  0.45105204  0.14777881  0.42222677     0.18290
H621        H  0.44841534  0.11587619  0.36725853     0.18280
N622        N  0.40162587  0.11654003  0.37985062    -0.88440
H623        H  0.00079933  0.13961570  0.41983277     0.35660
H624        H  0.99504414  0.16903070  0.41122880     0.40750
H625        H  0.38506338  0.11928071  0.38694916     0.40370
H626        H  0.40217322  0.09642990  0.37726721     0.35260
C627        C  0.04874710  0.13871752  0.38048408    -0.26470
C628        C  0.02633180  0.12360328  0.38559844    -0.14540
C629        C  0.03045914  0.10579708  0.39835745     0.36090
C630        C  0.05456982  0.10588314  0.40652004    -0.25920
C631        C  0.07564468  0.12267396  0.40213016    -0.15160
C632        C  0.07300078  0.13863504  0.38852125     0.37170
N633        N  0.09455785  0.15434527  0.38212459    -0.89410
H634        H  0.04816075  0.15021541  0.36971769     0.18290
H635        H  0.05655978  0.09294314  0.41666490     0.18280
N636        N  0.51010598  0.08770956  0.40339590    -0.88440
H637        H  0.09799726  0.14780986  0.37062691     0.35660
H638        H  0.11214079  0.15130306  0.38820456     0.40750
H639        H  0.51725620  0.06860343  0.40243831     0.40370
H640        H  0.50602314  0.09116100  0.41530511     0.35260
C641        C  0.07034904  0.39156090  0.60718919    -0.26470
C642        C  0.07162425  0.37211889  0.59560165    -0.14540
C643        C  0.05058884  0.35364443  0.59422728     0.36090
C644        C  0.02850705  0.35561806  0.60416019    -0.25920
C645        C  0.02590477  0.37621276  0.61523142    -0.15160
C646        C  0.04854571  0.39334733  0.61741936     0.37170
N647        N  0.05039902  0.41185094  0.63019796    -0.89410
H648        H  0.08707218  0.40505209  0.60863380     0.18290
H649        H  0.01243968  0.34144144  0.60273766     0.18280
N650        N  0.05113885  0.33345947  0.58238936    -0.88440
H651        H  0.06710933  0.42421889  0.62906304     0.35660
H652        H  0.05295774  0.40125606  0.64065349     0.40750
H653        H  0.05057976  0.34278513  0.57135121     0.40370
H654        H  0.03424169  0.32125854  0.58308130     0.35260
C655        C  0.47554655  0.38200471  0.59780833    -0.26470
C656        C  0.47413863  0.37797159  0.61434990    -0.14540
C657        C  0.44844737  0.37665972  0.62129764     0.36090
C658        C  0.42577033  0.37737823  0.61181065    -0.25920
C659        C  0.42767996  0.38005539  0.59543959    -0.15160
C660        C  0.45287112  0.38282700  0.58834142     0.37170
N661        N  0.45639416  0.38617094  0.57157599    -0.89410
H662        H  0.49427559  0.38526451  0.59193022     0.18290
H663        H  0.40644807  0.37565227  0.61731483     0.18280
N664        N  0.44522570  0.37370148  0.63802913    -0.88440
H665        H  0.46502543  0.40483627  0.56966063     0.35660
H666        H  0.43847102  0.38579481  0.56549914     0.40750
H667        H  0.43416464  0.35641398  0.64023104     0.40370
H668        H  0.43439474  0.38959719  0.64212486     0.35260
C669        C  0.27097957  0.43834854  0.85188662    -0.26470
C670        C  0.24854397  0.44169374  0.84242593    -0.14540
C671        C  0.22884618  0.42145737  0.84249015     0.36090
C672        C  0.23134322  0.39973388  0.85256076    -0.25920
C673        C  0.25260690  0.39735522  0.86330130    -0.15160
C674        C  0.27377779  0.41627798  0.86177176     0.37170
N675        N  0.29897117  0.41272319  0.86908790    -0.89410
H676        H  0.28702328  0.45283638  0.85143215     0.18290
H677        H  0.21564178  0.38484676  0.85250491     0.18280
N678        N  0.20637313  0.42169649  0.83223459    -0.88440
H679        H  0.30351401  0.42942878  0.87582390     0.35660
H680        H  0.31325686  0.41161443  0.86019967     0.40750
H681        H  0.21273447  0.42503049  0.82062864     0.40370
H682        H  0.19377523  0.43652110  0.83579951     0.35260
C683        C  0.27007717  0.32100113  0.84356068    -0.26470
C684        C  0.24876332  0.30292442  0.84423824    -0.14540
C685        C  0.22746543  0.30823544  0.85435590     0.36090
C686        C  0.22795374  0.33111551  0.86358066    -0.25920
C687        C  0.25019425  0.34856322  0.86395864    -0.15160
C688        C  0.27087962  0.34363697  0.85300729     0.37170
N689        N  0.29312435  0.36143848  0.85155324    -0.89410
H690        H  0.28628011  0.31781650  0.83547668     0.18290
H691        H  0.21040772  0.33478414  0.87038250     0.18280
N692        N  0.20540676  0.29016776  0.85568053    -0.88440
H693        H  0.29397829  0.36825820  0.83988121     0.35660
H694        H  0.31032083  0.35099637  0.85380625     0.40750
H695        H  0.18826763  0.30025757  0.85276433     0.40370
H696        H  0.20385191  0.28408126  0.86747417     0.35260
C697        C  0.99658014  0.45036277  0.63729523    -0.26470
C698        C  0.99403164  0.44859770  0.65365873    -0.14540
C699        C  0.49165903  0.42374248  0.66097180     0.36090
C700        C  0.49283241  0.40086445  0.65174369    -0.25920
C701        C  0.99727732  0.40206924  0.63522824    -0.15160
C702        C  0.99776547  0.42760562  0.62802353     0.37170
N703        N  0.00052991  0.43061200  0.61126535    -0.89410
H704        H  0.99791754  0.46958480  0.63165235     0.18290
H705        H  0.48953358  0.38221721  0.65767058     0.18280
N706        N  0.48786797  0.42185590  0.67778095    -0.88440
H707        H  0.01752818  0.44210547  0.60897265     0.35660
H708        H  0.98424515  0.44087022  0.60706376     0.40750
H709        H  0.50494362  0.42948280  0.68318771     0.40370
H710        H  0.48604842  0.40213789  0.68136014     0.35260
C711        C  0.48684430  0.30462303  0.64114553    -0.26470
C712        C  0.00498178  0.30374088  0.65356715    -0.14540
C713        C  0.02197420  0.32575049  0.65606135     0.36090
C714        C  0.01967297  0.34819227  0.64655920    -0.25920
C715        C  0.00009737  0.35037338  0.63473660    -0.15160
C716        C  0.48486491  0.32693973  0.63136790     0.37170
N717        N  0.46852679  0.32458893  0.61761293    -0.89410
H718        H  0.47440897  0.28743915  0.63871662     0.18290
H719        H  0.03296706  0.36460711  0.64888259     0.18280
N720        N  0.04101444  0.32658886  0.66856657    -0.88440
H721        H  0.47550794  0.30916915  0.61072971     0.35660
H722        H  0.44931224  0.31947543  0.62123403     0.40750
H723        H  0.05543693  0.31270510  0.66635957     0.40370
H724        H  0.03147832  0.32210630  0.67923869     0.35260
O725        O  0.13728826  0.65147338  0.76881286    -0.73100
O726        O  0.08876383  0.59498347  0.75165555    -0.74080
O727        O  0.13660265  0.59526511  0.76911305    -0.62700
O728        O  0.08954298  0.65089114  0.75141218    -0.71110
O729        O  0.11174237  0.65118806  0.72876796    -0.70660
O730        O  0.15867143  0.59558548  0.74642637    -0.61910
O731        O  0.11088241  0.59506643  0.72898527    -0.74420
O732        O  0.15948137  0.65146482  0.74616780    -0.73200
Cu733      Cu  0.11223473  0.62313394  0.76103157     1.04560
Cu734      Cu  0.13601091  0.62331466  0.73681275     1.04330
C735        C  0.15607592  0.66039351  0.76008530     0.93100
C736        C  0.09202708  0.58621798  0.73768384     0.92240
C737        C  0.15517296  0.58670165  0.76044695     0.84390
C738        C  0.09318954  0.65982347  0.73741434     0.90660
O739        O  0.38654892  0.59906503  0.72885522    -0.73100
O740        O  0.33958307  0.65423160  0.74670286    -0.74080
O741        O  0.38745167  0.65526718  0.72933215    -0.62700
O742        O  0.33871655  0.59835508  0.74615884    -0.71110
O743        O  0.36075280  0.59746390  0.76883186    -0.70660
O744        O  0.40944359  0.65456563  0.75202227    -0.61910
O745        O  0.36149879  0.65374197  0.76941891    -0.74420
O746        O  0.40861997  0.59863365  0.75152117    -0.73200
Cu747      Cu  0.36227018  0.62676870  0.73698712     1.04560
Cu748      Cu  0.38588907  0.62609698  0.76123387     1.04330
C749        C  0.40500682  0.59009037  0.73749812     0.93100
C750        C  0.34301901  0.66265826  0.76076757     0.92240
C751        C  0.40623179  0.66384725  0.73810418     0.84390
C752        C  0.34203540  0.58886805  0.76001015     0.90660
N753        N  0.05312183  0.70563875  0.71507353    -0.27440
N754        N  0.04010297  0.70422401  0.72859214    -0.35300
C755        C  0.05311359  0.68878874  0.73872160     0.00900
C756        C  0.07540363  0.67988549  0.73124798     0.06920
C757        C  0.07498097  0.69105324  0.71626684    -0.06180
H758        H  0.04572271  0.68276234  0.75021519     0.07590
H759        H  0.08864147  0.68762373  0.70669613     0.08790
Cu760      Cu  0.00178100  0.71602699  0.73132135     0.44170
Cu761      Cu  0.03780397  0.72489487  0.69552156     0.41990
Cu762      Cu  0.46529410  0.72830121  0.69631098     0.43880
N763        N  0.46214494  0.70704203  0.72924545    -0.34830
N764        N  0.44875955  0.70951701  0.71594838    -0.29080
C765        C  0.42575462  0.69576002  0.71727627    -0.05180
C766        C  0.42493652  0.68406361  0.73212148     0.07030
C767        C  0.44820071  0.69182183  0.73937830     0.00830
H768        H  0.41162305  0.69299236  0.70780913     0.08480
H769        H  0.45563886  0.68480622  0.75058682     0.07560
N770        N  0.48962106  0.74958087  0.68081764    -0.36280
N771        N  0.01571388  0.74827893  0.68050160    -0.28460
C772        C  0.02537836  0.76655396  0.67033848    -0.03700
C773        C  0.00442102  0.78031170  0.66410919     0.04910
C774        C  0.48207303  0.76872745  0.67085855     0.03010
H775        H  0.04618635  0.76972466  0.66798060     0.08110
H776        H  0.46186387  0.77478708  0.66930653     0.06950
N777        N  0.04903194  0.54207990  0.71513762    -0.27440
N778        N  0.03598690  0.54354272  0.72861346    -0.35300
C779        C  0.05017690  0.55803260  0.73888843     0.00900
C780        C  0.07325711  0.56633314  0.73154917     0.06920
C781        C  0.07206921  0.55573345  0.71649953    -0.06180
H782        H  0.04301985  0.56421440  0.75030140     0.07590
H783        H  0.08594762  0.55922307  0.70694509     0.08790
Cu784      Cu  0.99644679  0.53419667  0.73096082     0.44170
Cu785      Cu  0.03211284  0.52471271  0.69530147     0.41990
Cu786      Cu  0.45948652  0.52475210  0.69569276     0.43880
N787        N  0.45794878  0.54569426  0.72856811    -0.34830
N788        N  0.44454338  0.54406904  0.71521293    -0.29080
C789        C  0.42271321  0.55867358  0.71646710    -0.05180
C790        C  0.42269458  0.57003835  0.73132387     0.07030
C791        C  0.44519566  0.56123547  0.73866135     0.00830
H792        H  0.40879034  0.56197791  0.70700202     0.08480
H793        H  0.45290779  0.56742939  0.75000141     0.07560
N794        N  0.48197549  0.00314479  0.68005353    -0.36280
N795        N  0.00815834  0.00349877  0.67975108    -0.28460
C796        C  0.01630775  0.98525875  0.66947811    -0.03700
C797        C  0.99428038  0.97288222  0.66305473     0.04910
C798        C  0.47286212  0.98453135  0.67005557     0.03010
H799        H  0.03671343  0.98005832  0.66769451     0.08110
H800        H  0.45226241  0.97880110  0.66872377     0.06950
N801        N  0.30198942  0.70743615  0.78308836    -0.27440
N802        N  0.28896833  0.70570242  0.76959616    -0.35300
C803        C  0.30238925  0.69074138  0.75951102     0.00900
C804        C  0.32494483  0.68237563  0.76696133     0.06920
C805        C  0.32425832  0.69342648  0.78191054    -0.06180
H806        H  0.29505895  0.68451377  0.74808865     0.07590
H807        H  0.33802690  0.69025886  0.79147390     0.08790
Cu808      Cu  0.25013238  0.71577227  0.76680191     0.44170
Cu809      Cu  0.28603930  0.72627358  0.80258029     0.41990
Cu810      Cu  0.21332128  0.72588265  0.80160637     0.43880
N811        N  0.21092505  0.70484622  0.76885665    -0.34830
N812        N  0.19744175  0.70670664  0.78214522    -0.29080
C813        C  0.17487977  0.69226397  0.78088395    -0.05180
C814        C  0.17445747  0.68073120  0.76608291     0.07030
C815        C  0.19749217  0.68928507  0.75877916     0.00830
H816        H  0.16076164  0.68905726  0.79034444     0.08480
H817        H  0.20508642  0.68276925  0.74753981     0.07560
N818        N  0.23632448  0.74814491  0.81704882    -0.36280
N819        N  0.26246485  0.74829990  0.81752171    -0.28460
C820        C  0.27078808  0.76698592  0.82770000    -0.03700
C821        C  0.24889099  0.77926889  0.83393266     0.04910
C822        C  0.22741626  0.76672792  0.82682900     0.03010
H823        H  0.29135380  0.77196446  0.82989725     0.08110
H824        H  0.20684643  0.77181426  0.82777918     0.06950
N825        N  0.30083758  0.54093860  0.78136997    -0.27440
N826        N  0.28722047  0.54387270  0.76820420    -0.35300
C827        C  0.30054265  0.56022456  0.75840964     0.00900
C828        C  0.32364259  0.56821467  0.76577535     0.06920
C829        C  0.32337889  0.55551086  0.78032045    -0.06180
H830        H  0.29284398  0.56759359  0.74734890     0.07590
H831        H  0.33762917  0.55791803  0.78975645     0.08790
Cu832      Cu  0.24798239  0.53320187  0.76610944     0.44170
Cu833      Cu  0.28503686  0.52001739  0.80037276     0.41990
Cu834      Cu  0.21228939  0.52198434  0.80196730     0.43880
N835        N  0.20925510  0.54346935  0.76907422    -0.34830
N836        N  0.19633327  0.54148359  0.78261114    -0.29080
C837        C  0.17406576  0.55552463  0.78151611    -0.05180
C838        C  0.17328970  0.56687775  0.76657546     0.07030
C839        C  0.19578863  0.55865917  0.75904515     0.00830
H840        H  0.16033842  0.55846339  0.79111799     0.08480
H841        H  0.20302776  0.56508435  0.74759164     0.07560
N842        N  0.23539516  0.99798348  0.81615347    -0.36280
N843        N  0.26144876  0.99694108  0.81527042    -0.28460
C844        C  0.26973712  0.97728371  0.82459217    -0.03700
C845        C  0.24796512  0.96510161  0.83171283     0.04910
C846        C  0.22653115  0.97914676  0.82621128     0.03010
H847        H  0.29015106  0.97159024  0.82558556     0.08110
H848        H  0.20592483  0.97613857  0.82907713     0.06950
C849        C  0.99941347  0.87671763  0.62491676    -0.02640
O850        O  0.27821341  0.51474907  0.47956388    -0.73100
O851        O  0.22224384  0.96565922  0.49734257    -0.74080
O852        O  0.22190830  0.51330208  0.47967838    -0.62700
O853        O  0.27828296  0.96706971  0.49727932    -0.71110
O854        O  0.27832449  0.98921922  0.51983109    -0.70660
O855        O  0.22201539  0.53544836  0.50223150    -0.61910
O856        O  0.22200852  0.98778362  0.51989850    -0.74420
O857        O  0.27807564  0.53683157  0.50213473    -0.73200
Cu858      Cu  0.25016559  0.98937909  0.48769241     1.04560
Cu859      Cu  0.25010965  0.51313699  0.51179723     1.04330
C860        C  0.28691135  0.53365650  0.48814005     0.93100
C861        C  0.21334415  0.96886427  0.51131634     0.92240
C862        C  0.21313142  0.53177634  0.48827106     0.84390
C863        C  0.28711089  0.97073231  0.51125629     0.90660
O864        O  0.22121226  0.76266596  0.52010894    -0.73100
O865        O  0.27811228  0.71672079  0.50320292    -0.74080
O866        O  0.27753663  0.76411767  0.52079358    -0.62700
O867        O  0.22203194  0.71532422  0.50247780    -0.71110
O868        O  0.22261755  0.73784553  0.47990438    -0.70660
O869        O  0.27800399  0.78658273  0.49819936    -0.61910
O870        O  0.27895198  0.73929098  0.48064302    -0.74420
O871        O  0.22201192  0.78517187  0.49752634    -0.73200
Cu872      Cu  0.24969349  0.73887057  0.51242243     1.04560
Cu873      Cu  0.25041861  0.76303951  0.48829446     1.04330
C874        C  0.21271742  0.78128606  0.51140505     0.93100
C875        C  0.28749263  0.72070057  0.48935471     0.92240
C876        C  0.28646933  0.78316602  0.51226564     0.84390
C877        C  0.21360321  0.71880701  0.48840178     0.90660
N878        N  0.16885094  0.67682407  0.46541635    -0.27440
N879        N  0.17021985  0.66349415  0.47883426    -0.35300
C880        C  0.18510213  0.67714822  0.48917498     0.00900
C881        C  0.19377681  0.70019417  0.48196563     0.06920
C882        C  0.18299506  0.69952868  0.46690008    -0.06180
H883        H  0.19107886  0.66972992  0.50060838     0.07590
H884        H  0.18649490  0.71363908  0.45745480     0.08790
Cu885      Cu  0.15967070  0.62430820  0.48118362     0.44170
Cu886      Cu  0.15054149  0.66076722  0.44553424     0.41990
Cu887      Cu  0.15019301  0.58825838  0.44583249     0.43880
N888        N  0.16980359  0.58548372  0.47902765    -0.34830
N889        N  0.16820969  0.57234161  0.46562959    -0.29080
C890        C  0.18217822  0.55013411  0.46704222    -0.05180
C891        C  0.19311817  0.54958867  0.48205117     0.07030
C892        C  0.18470257  0.57218376  0.48930988     0.00830
H893        H  0.18557264  0.53641419  0.45755424     0.08480
H894        H  0.19096548  0.57965719  0.50068741     0.07560
N895        N  0.12927699  0.61103778  0.42987550    -0.36280
N896        N  0.12942411  0.63714085  0.42967043    -0.28460
C897        C  0.11149839  0.64527436  0.41906249    -0.03700
C898        C  0.09955947  0.62329930  0.41223197     0.04910
C899        C  0.11123126  0.60198101  0.41946891     0.03010
H900        H  0.10624526  0.66562581  0.41723982     0.08110
H901        H  0.10597154  0.58137153  0.41790607     0.06950
N902        N  0.33385611  0.68135161  0.46727654    -0.27440
N903        N  0.33128114  0.66738816  0.48041949    -0.35300
C904        C  0.31569959  0.68010977  0.49052575     0.00900
C905        C  0.30784464  0.70315567  0.48338780     0.06920
C906        C  0.31983150  0.70349064  0.46865907    -0.06180
H907        H  0.30859713  0.67196243  0.50162333     0.07590
H908        H  0.31712098  0.71777557  0.45929149     0.08790
Cu909      Cu  0.34104145  0.62836445  0.48214220     0.44170
Cu910      Cu  0.35299924  0.66653666  0.44769002     0.41990
Cu911      Cu  0.34955129  0.59412248  0.44579027     0.43880
N912        N  0.33034029  0.58938444  0.47917609    -0.34830
N913        N  0.33147728  0.57690352  0.46554341    -0.29080
C914        C  0.31735349  0.55411276  0.46677335    -0.05180
C915        C  0.30679541  0.55252335  0.48189084     0.07030
C916        C  0.31559599  0.57510811  0.48939268     0.00830
H917        H  0.31367441  0.54061094  0.45713405     0.08480
H918        H  0.30979117  0.58182547  0.50097103     0.07560
N919        N  0.37173060  0.61817299  0.43048157    -0.36280
N920        N  0.37350782  0.64419707  0.43151367    -0.28460
C921        C  0.39238543  0.65323296  0.42155031    -0.03700
C922        C  0.40267265  0.63199922  0.41369916     0.04910
C923        C  0.38921559  0.61008734  0.41964751     0.03010
H924        H  0.39900645  0.67361249  0.42064803     0.08110
H925        H  0.39316813  0.58967188  0.41710624     0.06950
N926        N  0.16810780  0.92613482  0.53376986    -0.27440
N927        N  0.17000038  0.91310723  0.52036785    -0.35300
C928        C  0.18513673  0.92707666  0.51020434     0.00900
C929        C  0.19341232  0.95002267  0.51752583     0.06920
C930        C  0.18214416  0.94896016  0.53246760    -0.06180
H931        H  0.19153355  0.91995289  0.49883189     0.07590
H932        H  0.18521994  0.96288669  0.54195812     0.08790
Cu933      Cu  0.15958791  0.87394445  0.51794274     0.44170
Cu934      Cu  0.14909149  0.90947957  0.55331994     0.41990
Cu935      Cu  0.14821685  0.83683697  0.55310396     0.43880
N936        N  0.16939643  0.83500636  0.52021880    -0.34830
N937        N  0.16715539  0.82149330  0.53355301    -0.29080
C938        C  0.18103945  0.79923509  0.53226950    -0.05180
C939        C  0.19258116  0.79904153  0.51741226     0.07030
C940        C  0.18461943  0.82189321  0.51010737     0.00830
H941        H  0.18392266  0.78520304  0.54175328     0.08480
H942        H  0.19138471  0.82963788  0.49883720     0.07560
N943        N  0.12614119  0.85954709  0.56836306    -0.36280
N944        N  0.12655544  0.88564517  0.56849640    -0.28460
C945        C  0.10799743  0.89385374  0.57860447    -0.03700
C946        C  0.09500070  0.87196759  0.58500121     0.04910
C947        C  0.10726559  0.85055073  0.57834441     0.03010
H948        H  0.10327006  0.91429957  0.58046499     0.08110
H949        H  0.10240064  0.82990372  0.58021480     0.06950
N950        N  0.33204281  0.93037033  0.53403103    -0.27440
N951        N  0.33013179  0.91689460  0.52076464    -0.35300
C952        C  0.31517457  0.93004564  0.51044197     0.00900
C953        C  0.30704634  0.95289055  0.51753739     0.06920
C954        C  0.31820776  0.95264018  0.53249345    -0.06180
H955        H  0.30869972  0.92234086  0.49916126     0.07590
H956        H  0.31510617  0.96665525  0.54186374     0.08790
Cu957      Cu  0.34005561  0.87796724  0.51887179     0.44170
Cu958      Cu  0.35049825  0.91492517  0.55381942     0.41990
Cu959      Cu  0.34941119  0.84230843  0.55465473     0.43880
N960        N  0.32958547  0.83880284  0.52148919    -0.34830
N961        N  0.33100089  0.82574317  0.53499597    -0.29080
C962        C  0.31697450  0.80293600  0.53367675    -0.05180
C963        C  0.30621660  0.80193024  0.51861457     0.07030
C964        C  0.31478309  0.82487765  0.51124579     0.00830
H965        H  0.31355477  0.78898734  0.54321671     0.08480
H966        H  0.30879173  0.83203898  0.49975607     0.07560
N967        N  0.37164091  0.86610692  0.56983706    -0.36280
N968        N  0.37212687  0.89222856  0.56946756    -0.28460
C969        C  0.39117482  0.90122435  0.57926244    -0.03700
C970        C  0.40312931  0.87980250  0.58612133     0.04910
C971        C  0.39033022  0.85788460  0.57991594     0.03010
H972        H  0.39705043  0.92174570  0.58048990     0.08110
H973        H  0.39545937  0.83750101  0.58173797     0.06950
O974        O  0.38963569  0.90320326  0.27039150    -0.73100
O975        O  0.34068890  0.84726630  0.25269100    -0.74080
O976        O  0.38835539  0.84685532  0.27026292    -0.62700
O977        O  0.34188006  0.90318729  0.25283445    -0.71110
O978        O  0.36419999  0.90369136  0.23023486    -0.70660
O979        O  0.41067302  0.84737306  0.24766388    -0.61910
O980        O  0.36302978  0.84753628  0.23010023    -0.74420
O981        O  0.41186918  0.90331058  0.24776754    -0.73200
Cu982      Cu  0.36433042  0.87512038  0.26233020     1.04560
Cu983      Cu  0.38826985  0.87549581  0.23817502     1.04330
C984        C  0.40854533  0.91208162  0.26173188     0.93100
C985        C  0.34405636  0.83864256  0.23869063     0.92240
C986        C  0.40686695  0.83818675  0.26159007     0.84390
C987        C  0.34558216  0.91224118  0.23886976     0.90660
O988        O  0.13737102  0.84552454  0.23009973    -0.73100
O989        O  0.09109556  0.90159464  0.24764855    -0.74080
O990        O  0.13856722  0.90167995  0.22982698    -0.62700
O991        O  0.08989544  0.84564732  0.24792623    -0.71110
O992        O  0.11234247  0.84558196  0.27045748    -0.70660
O993        O  0.16107722  0.90161751  0.25233767    -0.61910
O994        O  0.11361769  0.90182513  0.27015624    -0.74420
O995        O  0.15987078  0.84570031  0.25261572    -0.73200
Cu996      Cu  0.11339245  0.87360027  0.23810978     1.04560
Cu997      Cu  0.13755249  0.87367768  0.26216585     1.04330
C998        C  0.15606904  0.83686134  0.23867315     0.93100
C999        C  0.09499352  0.91056296  0.26155174     0.92240
C1000       C  0.15762286  0.91043317  0.23833117     0.84390
C1001       C  0.09331776  0.83681316  0.26193123     0.90660
N1002       N  0.45077897  0.95810867  0.28367546    -0.27440
N1003       N  0.46402957  0.95589575  0.27032039    -0.35300
C1004       C  0.45026852  0.94040907  0.26036791     0.00900
C1005       C  0.42723273  0.93218060  0.26778032     0.06920
C1006       C  0.42800920  0.94387830  0.28255920    -0.06180
H1007       H  0.45762929  0.93372810  0.24910797     0.07590
H1008       H  0.41392985  0.94099999  0.29207233     0.08790
Cu1009     Cu  0.00335910  0.96602692  0.26785215     0.44170
Cu1010     Cu  0.46730008  0.97779015  0.30291364     0.41990
Cu1011     Cu  0.04015300  0.97637521  0.30306184     0.43880
N1012       N  0.04195462  0.95492062  0.27031037    -0.34830
N1013       N  0.05532136  0.95675355  0.28367093    -0.29080
C1014       C  0.07725296  0.94226260  0.28246831    -0.05180
C1015       C  0.07735516  0.93075185  0.26764212     0.07030
C1016       C  0.05480297  0.93935811  0.26027783     0.00830
H1017       H  0.09117405  0.93910352  0.29195316     0.08480
H1018       H  0.04709875  0.93297084  0.24897383     0.07560
N1019       N  0.01768722  0.49941980  0.31800293    -0.36280
N1020       N  0.49154177  0.50001400  0.31789206    -0.28460
C1021       C  0.48367725  0.51863044  0.32800109    -0.03700
C1022       C  0.00583315  0.53060023  0.33469057     0.04910
C1023       C  0.02704412  0.51760453  0.32820410     0.03010
H1024       H  0.46329194  0.52380779  0.32989732     0.08110
H1025       H  0.04780107  0.52092261  0.33059616     0.06950
N1026       N  0.30180208  0.79390783  0.21596662    -0.27440
N1027       N  0.28855899  0.79525061  0.22937865    -0.35300
C1028       C  0.30234206  0.81010899  0.23966939     0.00900
C1029       C  0.32538106  0.81875874  0.23241464     0.06920
C1030       C  0.32457276  0.80800420  0.21739099    -0.06180
H1031       H  0.29500426  0.81609855  0.25107881     0.07590
H1032       H  0.33859699  0.81153316  0.20791735     0.08790
Cu1033     Cu  0.24930556  0.78456371  0.23166036     0.44170
Cu1034     Cu  0.28549409  0.77579804  0.19615600     0.41990
Cu1035     Cu  0.21276698  0.77459355  0.19623738     0.43880
N1036       N  0.21023777  0.79421696  0.22941266    -0.34830
N1037       N  0.19691854  0.79251060  0.21602831    -0.29080
C1038       C  0.17451424  0.80621377  0.21744896    -0.05180
C1039       C  0.17402475  0.81707238  0.23244536     0.07030
C1040       C  0.19686076  0.80889463  0.23968194     0.00830
H1041       H  0.16059346  0.80947233  0.20797662     0.08480
H1042       H  0.20442823  0.81517767  0.25103892     0.07560
N1043       N  0.23589507  0.75385986  0.18044957    -0.36280
N1044       N  0.26206243  0.75443259  0.18036128    -0.28460
C1045       C  0.27059821  0.73659054  0.16994851    -0.03700
C1046       C  0.24883804  0.72406968  0.16314186     0.04910
C1047       C  0.22718885  0.73557664  0.17012662     0.03010
H1048       H  0.29113723  0.73173720  0.16836950     0.08110
H1049       H  0.20658776  0.73017688  0.16841768     0.06950
N1050       N  0.44609464  0.79100315  0.28352871    -0.27440
N1051       N  0.45982529  0.79355060  0.27031895    -0.35300
C1052       C  0.44720972  0.80958819  0.26034794     0.00900
C1053       C  0.42444587  0.81778796  0.26761933     0.06920
C1054       C  0.42417966  0.80553083  0.28231338    -0.06180
H1055       H  0.45521153  0.81658151  0.24919131     0.07590
H1056       H  0.41001875  0.80820351  0.29171969     0.08790
Cu1057     Cu  0.99856971  0.78276859  0.26824758     0.44170
Cu1058     Cu  0.46101152  0.77063922  0.30280955     0.41990
Cu1059     Cu  0.03383567  0.77276137  0.30415304     0.43880
N1060       N  0.03776886  0.79315924  0.27098486    -0.34830
N1061       N  0.05065460  0.79160001  0.28451646    -0.29080
C1062       C  0.07344276  0.80579489  0.28325465    -0.05180
C1063       C  0.07459524  0.81681554  0.26821545     0.07030
C1064       C  0.05176804  0.80821599  0.26079979     0.00830
H1065       H  0.08725505  0.80916091  0.29282347     0.08480
H1066       H  0.04468986  0.81436978  0.24932547     0.07560
N1067       N  0.00980185  0.75006971  0.31922729    -0.36280
N1068       N  0.48365055  0.74878562  0.31841138    -0.28460
C1069       C  0.47460602  0.72980317  0.32831959    -0.03700
C1070       C  0.99597424  0.71892293  0.33589317     0.04910
C1071       C  0.01796477  0.73215203  0.32984776     0.03010
H1072       H  0.45405930  0.72374900  0.32951571     0.08110
H1073       H  0.03844096  0.72802043  0.33232595     0.06950
N1074       N  0.30501603  0.95739550  0.21636192    -0.27440
N1075       N  0.29143874  0.95510427  0.22964416    -0.35300
C1076       C  0.30464185  0.94000869  0.23987021     0.00900
C1077       C  0.32762968  0.93217367  0.23269193     0.06920
C1078       C  0.32740515  0.94366025  0.21778729    -0.06180
H1079       H  0.29687887  0.93324208  0.25113379     0.07590
H1080       H  0.34151744  0.94084583  0.20837163     0.08790
Cu1081     Cu  0.25232051  0.96469905  0.23161703     0.44170
Cu1082     Cu  0.28944149  0.97612704  0.19669372     0.41990
Cu1083     Cu  0.21666462  0.97399964  0.19577509     0.43880
N1084       N  0.21314402  0.95399433  0.22903745    -0.34830
N1085       N  0.20012015  0.95543951  0.21554877    -0.29080
C1086       C  0.17734663  0.94127237  0.21692146    -0.05180
C1087       C  0.17632798  0.93037840  0.23198830     0.07030
C1088       C  0.19923139  0.93901831  0.23931185     0.00830
H1089       H  0.16345235  0.93782978  0.20740380     0.08480
H1090       H  0.20639468  0.93297253  0.25078747     0.07560
N1091       N  0.24040867  0.49621585  0.18034567    -0.36280
N1092       N  0.26658311  0.49724911  0.18086976    -0.28460
C1093       C  0.27548457  0.51618788  0.17089730    -0.03700
C1094       C  0.25398756  0.52735029  0.16363332     0.04910
C1095       C  0.23207727  0.51435664  0.16991845     0.03010
H1096       H  0.29598518  0.52241551  0.16971598     0.08110
H1097       H  0.21158616  0.51902032  0.16790306     0.06950
C1098       C  0.99960685  0.62370608  0.37609633    -0.02640
O1099       O  0.02862527  0.73680843  0.02163119    -0.73100
O1100       O  0.47254741  0.78382651  0.00455733    -0.74080
O1101       O  0.47225988  0.73570549  0.02176993    -0.62700
O1102       O  0.02858359  0.78480579  0.00436559    -0.71110
O1103       O  0.02842751  0.76314694  0.98163941    -0.70660
O1104       O  0.47221315  0.71417054  0.99900417    -0.61910
O1105       O  0.47205462  0.76226538  0.98180164    -0.74420
O1106       O  0.02828664  0.71516284  0.99890374    -0.73200
Cu1107     Cu  0.00050284  0.76107837  0.01386259     1.04560
Cu1108     Cu  0.00022826  0.73789086  0.98955509     1.04330
C1109       C  0.03732388  0.71853081  0.01286421     0.93100
C1110       C  0.46349656  0.78059071  0.99059813     0.92240
C1111       C  0.46341205  0.71708420  0.01301928     0.84390
C1112       C  0.03737299  0.78175567  0.99035234     0.90660
O1113       O  0.47410973  0.98650612  0.98112862    -0.73100
O1114       O  0.03089220  0.53514319  0.99806605    -0.74080
O1115       O  0.03057172  0.98737430  0.98079316    -0.62700
O1116       O  0.47475994  0.53419707  0.99843077    -0.71110
O1117       O  0.47480451  0.51204627  0.02113189    -0.70660
O1118       O  0.03058010  0.96541762  0.00356060    -0.61910
O1119       O  0.03120263  0.51310340  0.02080521    -0.74420
O1120       O  0.47455669  0.96444832  0.00385959    -0.73200
Cu1121     Cu  0.00258561  0.51162355  0.98881834     1.04560
Cu1122     Cu  0.00280524  0.98795360  0.01311462     1.04330
C1123       C  0.46537885  0.96774479  0.98994483     0.93100
C1124       C  0.03996003  0.53188024  0.01201079     0.92240
C1125       C  0.03933851  0.96890504  0.98952499     0.84390
C1126       C  0.46594043  0.53050801  0.01244491     0.90660
N1127       N  0.41915860  0.56964365  0.03456997    -0.27440
N1128       N  0.42142996  0.58337168  0.02131374    -0.35300
C1129       C  0.43732456  0.57083632  0.01129798     0.00900
C1130       C  0.44572204  0.54812491  0.01857040     0.06920
C1131       C  0.43373523  0.54781054  0.03332187    -0.06180
H1132       H  0.44402505  0.57881412  0.00007121     0.07590
H1133       H  0.43655171  0.53360512  0.04271991     0.08790
Cu1134     Cu  0.41031492  0.62192085  0.01902648     0.44170
Cu1135     Cu  0.39880947  0.58416555  0.05393083     0.41990
Cu1136     Cu  0.39965056  0.65670515  0.05465136     0.43880
N1137       N  0.42014931  0.66116274  0.02165882    -0.34830
N1138       N  0.41831173  0.67387852  0.03517131    -0.29080
C1139       C  0.43225411  0.69677388  0.03402631    -0.05180
C1140       C  0.44341113  0.69820470  0.01906994     0.07030
C1141       C  0.43515360  0.67541692  0.01157181     0.00830
H1142       H  0.43541384  0.71044795  0.04363859     0.08480
H1143       H  0.44158866  0.66853038  0.00015281     0.07560
N1144       N  0.37696840  0.63269899  0.06961107    -0.36280
N1145       N  0.37631868  0.60658295  0.06924674    -0.28460
C1146       C  0.35709659  0.59756767  0.07901689    -0.03700
C1147       C  0.34522919  0.61900512  0.08582113     0.04910
C1148       C  0.35829877  0.64090328  0.07965377     0.03010
H1149       H  0.35129017  0.57703593  0.08042908     0.08110
H1150       H  0.35353698  0.66131837  0.08159198     0.06950
N1151       N  0.08478619  0.92808726  0.96751925    -0.27440
N1152       N  0.08247868  0.91486267  0.98095047    -0.35300
C1153       C  0.06721359  0.92817220  0.99093738     0.00900
C1154       C  0.05923957  0.95087240  0.98346633     0.06920
C1155       C  0.07084416  0.95037123  0.96861499    -0.06180
H1156       H  0.06049596  0.92068743  0.00227848     0.07590
H1157       H  0.06808459  0.96427618  0.95904995     0.08790
Cu1158     Cu  0.09229490  0.87598667  0.98354780     0.44170
Cu1159     Cu  0.10420169  0.91217522  0.94824351     0.41990
Cu1160     Cu  0.10267529  0.83957064  0.94838356     0.43880
N1161       N  0.08147566  0.83689905  0.98130761    -0.34830
N1162       N  0.08335832  0.82364028  0.96798625    -0.29080
C1163       C  0.06901875  0.80103206  0.96933228    -0.05180
C1164       C  0.05755532  0.80033914  0.98421202     0.07030
C1165       C  0.06602661  0.82326870  0.99147115     0.00830
H1166       H  0.06588997  0.78700818  0.95989837     0.08480
H1167       H  0.05956375  0.83063071  0.00277329     0.07560
N1168       N  0.12548712  0.86282479  0.93311107    -0.36280
N1169       N  0.12619280  0.88891456  0.93315257    -0.28460
C1170       C  0.14514464  0.89754221  0.92312641    -0.03700
C1171       C  0.15694090  0.87591458  0.91633980     0.04910
C1172       C  0.14390539  0.85425680  0.92301532     0.03010
H1173       H  0.15090943  0.91806527  0.92169185     0.08110
H1174       H  0.14812620  0.83370162  0.92113101     0.06950
N1175       N  0.08565424  0.57402282  0.03410209    -0.27440
N1176       N  0.08342768  0.58745043  0.02077479    -0.35300
C1177       C  0.06819083  0.57367990  0.01066894     0.00900
C1178       C  0.06017267  0.55048758  0.01798102     0.06920
C1179       C  0.07172831  0.55117272  0.03282589    -0.06180
H1180       H  0.06137942  0.58116715  0.99942510     0.07590
H1181       H  0.06876765  0.53704792  0.04232320     0.08790
Cu1182     Cu  0.09293142  0.62691175  0.01863741     0.44170
Cu1183     Cu  0.10426577  0.59029579  0.05373409     0.41990
Cu1184     Cu  0.10277114  0.66265478  0.05439140     0.43880
N1185       N  0.08176892  0.66533147  0.02138434    -0.34830
N1186       N  0.08352157  0.67826323  0.03485863    -0.29080
C1187       C  0.06900414  0.70016620  0.03374203    -0.05180
C1188       C  0.05755545  0.70072712  0.01886211     0.07030
C1189       C  0.06623136  0.67846300  0.01136657     0.00830
H1190       H  0.06574002  0.71373661  0.04332493     0.08480
H1191       H  0.05989445  0.67113082  0.99997070     0.07560
N1192       N  0.12429463  0.63984697  0.07011488    -0.36280
N1193       N  0.12483315  0.61377965  0.06981358    -0.28460
C1194       C  0.14257483  0.60547497  0.08045016    -0.03700
C1195       C  0.15361111  0.62725523  0.08796597     0.04910
C1196       C  0.14167568  0.64871684  0.08099063     0.03010
H1197       H  0.14809170  0.58513440  0.08198344     0.08110
H1198       H  0.14609696  0.66933357  0.08319128     0.06950
N1199       N  0.41829049  0.92605876  0.96846837    -0.27440
N1200       N  0.42085213  0.91272713  0.98181169    -0.35300
C1201       C  0.43681258  0.92627570  0.99161420     0.00900
C1202       C  0.44496912  0.94923013  0.98411044     0.06920
C1203       C  0.43275511  0.94864731  0.96944557    -0.06180
H1204       H  0.44379322  0.91884282  0.00283314     0.07590
H1205       H  0.43539101  0.96275710  0.95991026     0.08790
Cu1206     Cu  0.41029698  0.87362106  0.98456517     0.44170
Cu1207     Cu  0.39774911  0.91018393  0.94936177     0.41990
Cu1208     Cu  0.39739925  0.83748258  0.94984130     0.43880
N1209       N  0.42024792  0.83478462  0.98221172    -0.34830
N1210       N  0.41750218  0.82155836  0.96890640    -0.29080
C1211       C  0.43143713  0.79925887  0.96997221    -0.05180
C1212       C  0.44350374  0.79873425  0.98468044     0.07030
C1213       C  0.43582066  0.82145641  0.99210153     0.00830
H1214       H  0.43383452  0.78533495  0.96047261     0.08480
H1215       H  0.44289302  0.82891340  0.00331665     0.07560
N1216       N  0.37440863  0.86031773  0.93497025    -0.36280
N1217       N  0.37452716  0.88640498  0.93470331    -0.28460
C1218       C  0.35565599  0.89446053  0.92469104    -0.03700
C1219       C  0.34300147  0.87245027  0.91831047     0.04910
C1220       C  0.35544721  0.85118186  0.92519592     0.03010
H1221       H  0.35103630  0.91489042  0.92255134     0.08110
H1222       H  0.35025987  0.83051500  0.92395187     0.06950
C1223       C  0.25098184  0.62560980  0.12639963    -0.02640
C1224       C  0.25137203  0.87330743  0.87502986    -0.02640
C1225       C  0.30160311  0.89242680  0.90813683    -0.26470
C1226       C  0.31973201  0.87193090  0.90757336    -0.14540
C1227       C  0.31505051  0.85110329  0.89696455     0.36090
C1228       C  0.29277807  0.85120408  0.88715693    -0.25920
C1229       C  0.27533478  0.87264431  0.88668758    -0.15160
C1230       C  0.27954471  0.89288258  0.89806541     0.37170
N1231       N  0.26172195  0.91434892  0.89924697    -0.89410
H1232       H  0.30439888  0.90827556  0.91653137     0.18290
H1233       H  0.28951854  0.83391162  0.88002670     0.18280
N1234       N  0.33320370  0.82994609  0.89571719    -0.88440
H1235       H  0.27242868  0.93201885  0.89764110     0.35660
H1236       H  0.25392637  0.91429519  0.91068841     0.40750
H1237       H  0.34005854  0.82938256  0.88407017     0.40370
H1238       H  0.32288926  0.81226169  0.89805827     0.35260
C1239       C  0.19674645  0.64653040  0.09642607    -0.26470
C1240       C  0.17655359  0.62761328  0.09888501    -0.14540
C1241       C  0.17946812  0.60885039  0.11115071     0.36090
C1242       C  0.20334075  0.60807698  0.11953595    -0.25920
C1243       C  0.22467062  0.62602881  0.11654722    -0.15160
C1244       C  0.22028304  0.64623525  0.10516823     0.37170
N1245       N  0.23999234  0.66635991  0.10216368    -0.89410
H1246       H  0.19461741  0.66141556  0.08730984     0.18290
H1247       H  0.20415904  0.59397319  0.12910689     0.18280
N1248       N  0.15846280  0.59086906  0.11589984    -0.88440
H1249       H  0.24512744  0.66574518  0.09020707     0.35660
H1250       H  0.23163391  0.68464546  0.10436200     0.40750
H1251       H  0.14069414  0.59526507  0.11036796     0.40370
H1252       H  0.15489454  0.59393462  0.12791327     0.35260
C1253       C  0.19818915  0.85500886  0.90690150    -0.26470
C1254       C  0.18043979  0.87577049  0.90576536    -0.14540
C1255       C  0.18586439  0.89638825  0.89494167     0.36090
C1256       C  0.20895082  0.89594459  0.88573505    -0.25920
C1257       C  0.22631774  0.87436537  0.88600787    -0.15160
C1258       C  0.22088500  0.85418190  0.89738542     0.37170
N1259       N  0.23829490  0.83247929  0.89923624    -0.89410
H1260       H  0.19470102  0.83930523  0.91542290     0.18290
H1261       H  0.21319689  0.91316590  0.87860076     0.18280
N1262       N  0.16776220  0.91765647  0.89311048    -0.88440
H1263       H  0.24508919  0.83235533  0.91089778     0.35660
H1264       H  0.22745244  0.81498743  0.89736818     0.40750
H1265       H  0.15008568  0.90967740  0.88863211     0.40370
H1266       H  0.17469811  0.93137747  0.88473694     0.35260
C1267       C  0.32411079  0.62313807  0.11187424    -0.26470
C1268       C  0.32123363  0.61899600  0.09568923    -0.14540
C1269       C  0.29561768  0.61564046  0.08928934     0.36090
C1270       C  0.27355871  0.61733530  0.09923427    -0.25920
C1271       C  0.27592460  0.62345044  0.11549117    -0.15160
C1272       C  0.30203209  0.62477378  0.12181379     0.37170
N1273       N  0.30639059  0.62811712  0.13838206    -0.89250
H1274       H  0.34376144  0.62513268  0.11689481     0.18290
H1275       H  0.25447735  0.61343008  0.09393293     0.18280
N1276       N  0.29104223  0.61050319  0.07280577    -0.88440
H1277       H  0.31803183  0.64517045  0.14003157     0.35660
H1278       H  0.31708122  0.61206028  0.14248980     0.40750
H1279       H  0.30861796  0.60963120  0.06641348     0.40370
H1280       H  0.28068002  0.62639222  0.06817750     0.35260
C1281       C  0.25828005  0.57573418  0.16183925    -0.26470
C1282       C  0.25409928  0.55174146  0.15411540    -0.14540
C1283       C  0.25054606  0.55161182  0.13761857     0.36090
C1284       C  0.25035332  0.57564170  0.12940278    -0.25920
C1285       C  0.25249387  0.60037146  0.13709991    -0.15160
C1286       C  0.25800776  0.59988140  0.15365402     0.37170
N1287       N  0.26485925  0.62323711  0.16229259    -0.89410
H1288       H  0.26204095  0.57574181  0.17444998     0.18290
H1289       H  0.24758844  0.57502157  0.11671813     0.18280
N1290       N  0.24695622  0.52765672  0.12877844    -0.88440
H1291       H  0.28371728  0.62099910  0.16709552     0.35660
H1292       H  0.25166336  0.62480751  0.17173164     0.40750
H1293       H  0.24735726  0.01097022  0.13603022     0.40370
H1294       H  0.26295067  0.52630039  0.12102012     0.35260
C1295       C  0.48687699  0.67136127  0.34019344    -0.26470
C1296       C  0.99572824  0.69552013  0.34633131    -0.14540
C1297       C  0.00419084  0.69669768  0.36217095     0.36090
C1298       C  0.00427478  0.67353612  0.37123477    -0.25920
C1299       C  0.99802967  0.64838042  0.36484126    -0.15160
C1300       C  0.48752863  0.64799760  0.34917946     0.37170
N1301       N  0.47637035  0.62449423  0.34236833    -0.89410
H1302       H  0.47942311  0.67055596  0.32819535     0.18290
H1303       H  0.01037174  0.67522604  0.38341890     0.18280
N1304       N  0.01218656  0.72098460  0.36965553    -0.88440
H1305       H  0.48650562  0.62071985  0.33188071     0.35660
H1306       H  0.45666257  0.62798444  0.33946541     0.40750
H1307       H  0.01024196  0.73722850  0.36217174     0.40370
H1308       H  0.03225961  0.71972264  0.37242343     0.35260
C1309       C  0.22900865  0.68092979  0.15490353    -0.26470
C1310       C  0.24881861  0.70037978  0.15290718    -0.14540
C1311       C  0.26861350  0.69659760  0.14149130     0.36090
C1312       C  0.26902925  0.67284290  0.13301899    -0.25920
C1313       C  0.25044432  0.65202569  0.13583455    -0.15160
C1314       C  0.22942935  0.65719138  0.14650988     0.37170
N1315       N  0.20862631  0.63806344  0.14919836    -0.89410
H1316       H  0.21335255  0.68372039  0.16342415     0.18290
H1317       H  0.28368528  0.67130700  0.12383993     0.18280
N1318       N  0.28793139  0.71714592  0.13824642    -0.88440
H1319       H  0.19071193  0.64667943  0.14620361     0.35660
H1320       H  0.20799724  0.63346274  0.16124500     0.40750
H1321       H  0.27792363  0.73322083  0.13356516     0.40370
H1322       H  0.30128711  0.71125829  0.12959406     0.35260
C1323       C  0.48688842  0.55262855  0.35797372    -0.26470
C1324       C  0.00588678  0.55291302  0.34598808    -0.14540
C1325       C  0.02323189  0.57493439  0.34468652     0.36090
C1326       C  0.02061202  0.59613291  0.35498038    -0.25920
C1327       C  0.00058924  0.59707670  0.36669833    -0.15160
C1328       C  0.48438239  0.57346221  0.36866178     0.37170
N1329       N  0.46634008  0.56800844  0.38146172    -0.89410
H1330       H  0.47406074  0.53535752  0.35939000     0.18290
H1331       H  0.03383638  0.61294865  0.35319027     0.18280
N1332       N  0.04277327  0.57729385  0.33248824    -0.88440
H1333       H  0.44698980  0.56840915  0.37715880     0.35660
H1334       H  0.46827244  0.58023308  0.39113356     0.40750
H1335       H  0.03367687  0.57420778  0.32154803     0.40370
H1336       H  0.05711441  0.56316349  0.33435280     0.35260
C1337       C  0.45062849  0.64012664  0.41029471    -0.26470
C1338       C  0.42649460  0.63201161  0.40366976    -0.14540
C1339       C  0.42583588  0.62359633  0.38783955     0.36090
C1340       C  0.44953967  0.62235172  0.37936577    -0.25920
C1341       C  0.47451375  0.62718175  0.38646450    -0.15160
C1342       C  0.47445979  0.63831713  0.40189435     0.37170
N1343       N  0.99799341  0.64908032  0.40896993    -0.89410
H1344       H  0.45105551  0.64776500  0.42223010     0.18290
H1345       H  0.44841484  0.61588845  0.36725630     0.18280
N1346       N  0.40162502  0.61655454  0.37984849    -0.88440
H1347       H  0.00079683  0.63963526  0.41983077     0.35660
H1348       H  0.99503787  0.66904556  0.41122211     0.40750
H1349       H  0.38506311  0.61929380  0.38694774     0.40370
H1350       H  0.40216928  0.59644565  0.37726126     0.35260
C1351       C  0.04874918  0.63871201  0.38048302    -0.26470
C1352       C  0.02633141  0.62360405  0.38560012    -0.14540
C1353       C  0.03045605  0.60580333  0.39836226     0.36090
C1354       C  0.05456706  0.60588904  0.40652451    -0.25920
C1355       C  0.07564465  0.62267394  0.40213144    -0.15160
C1356       C  0.07300297  0.63862933  0.38852003     0.37170
N1357       N  0.09456228  0.65433349  0.38212085    -0.89410
H1358       H  0.04816406  0.65020562  0.36971494     0.18290
H1359       H  0.05655534  0.59295344  0.41667153     0.18280
N1360       N  0.51011152  0.58769765  0.40338775    -0.88440
H1361       H  0.09800137  0.64779151  0.37062452     0.35660
H1362       H  0.11214444  0.65129267  0.38820192     0.40750
H1363       H  0.51726509  0.56859332  0.40242694     0.40370
H1364       H  0.50602725  0.59114265  0.41529749     0.35260
C1365       C  0.07034861  0.89156072  0.60718895    -0.26470
C1366       C  0.07162394  0.87211858  0.59560148    -0.14540
C1367       C  0.05058860  0.85364404  0.59422716     0.36090
C1368       C  0.02850676  0.85561769  0.60416003    -0.25920
C1369       C  0.02590436  0.87621248  0.61523119    -0.15160
C1370       C  0.04854523  0.89334716  0.61741909     0.37170
N1371       N  0.05039844  0.91185090  0.63019763    -0.89410
H1372       H  0.08707168  0.90505199  0.60863353     0.18290
H1373       H  0.01243944  0.84144100  0.60273752     0.18280
N1374       N  0.05113874  0.83345895  0.58238932    -0.88440
H1375       H  0.06710874  0.92421886  0.62906271     0.35660
H1376       H  0.05295709  0.90125612  0.64065320     0.40750
H1377       H  0.05057966  0.84278449  0.57135113     0.40370
H1378       H  0.03424162  0.82125797  0.58308128     0.35260
C1379       C  0.47554687  0.88200529  0.59780862    -0.26470
C1380       C  0.47413901  0.87797203  0.61435019    -0.14540
C1381       C  0.44844778  0.87666023  0.62129796     0.36090
C1382       C  0.42577070  0.87737894  0.61181102    -0.25920
C1383       C  0.42768026  0.88005627  0.59543996    -0.15160
C1384       C  0.45287141  0.88282780  0.58834176     0.37170
N1385       N  0.45639439  0.88617186  0.57157633    -0.89410
H1386       H  0.49427590  0.88526503  0.59193049     0.18290
H1387       H  0.40644847  0.87565299  0.61731522     0.18280
N1388       N  0.44522616  0.87370185  0.63802945    -0.88440
H1389       H  0.46502577  0.90483716  0.56966101     0.35660
H1390       H  0.43847122  0.88579590  0.56549951     0.40750
H1391       H  0.43416504  0.85641437  0.64023132     0.40370
H1392       H  0.43439531  0.88959758  0.64212525     0.35260
C1393       C  0.27097962  0.93834862  0.85188671    -0.26470
C1394       C  0.24854403  0.94169375  0.84242600    -0.14540
C1395       C  0.22884628  0.92145735  0.84249022     0.36090
C1396       C  0.23134335  0.89973389  0.85256085    -0.25920
C1397       C  0.25260701  0.89735529  0.86330140    -0.15160
C1398       C  0.27377787  0.91627810  0.86177186     0.37170
N1399       N  0.29897124  0.91272337  0.86908802    -0.89410
H1400       H  0.28702330  0.95283649  0.85143224     0.18290
H1401       H  0.21564194  0.88484674  0.85250500     0.18280
N1402       N  0.20637325  0.92169640  0.83223464    -0.88440
H1403       H  0.30351404  0.92942897  0.87582402     0.35660
H1404       H  0.31325695  0.91161462  0.86019980     0.40750
H1405       H  0.21273460  0.92503039  0.82062870     0.40370
H1406       H  0.19377530  0.93652099  0.83579955     0.35260
C1407       C  0.27007746  0.82100123  0.84356083    -0.26470
C1408       C  0.24876366  0.80292448  0.84423839    -0.14540
C1409       C  0.22746574  0.80823546  0.85435605     0.36090
C1410       C  0.22795399  0.83111553  0.86358079    -0.25920
C1411       C  0.25019445  0.84856330  0.86395877    -0.15160
C1412       C  0.27087985  0.84363708  0.85300742     0.37170
N1413       N  0.29312455  0.86143863  0.85155338    -0.89410
H1414       H  0.28628041  0.81781662  0.83547684     0.18290
H1415       H  0.21040796  0.83478414  0.87038262     0.18280
N1416       N  0.20540712  0.79016772  0.85568068    -0.88440
H1417       H  0.29397848  0.86825835  0.83988134     0.35660
H1418       H  0.31032105  0.85099657  0.85380639     0.40750
H1419       H  0.18826797  0.80025748  0.85276448     0.40370
H1420       H  0.20385227  0.78408124  0.86747432     0.35260
C1421       C  0.99657948  0.95036250  0.63729494    -0.26470
C1422       C  0.99403105  0.94859745  0.65365845    -0.14540
C1423       C  0.49165962  0.92374271  0.66097208     0.36090
C1424       C  0.49283297  0.90086470  0.65174396    -0.25920
C1425       C  0.99727676  0.90206897  0.63522797    -0.15160
C1426       C  0.99776482  0.92760533  0.62802325     0.37170
N1427       N  0.00052918  0.93061167  0.61126506    -0.89410
H1428       H  0.99791685  0.96958452  0.63165204     0.18290
H1429       H  0.48953412  0.88221745  0.65767085     0.18280
N1430       N  0.48786855  0.92185613  0.67778123    -0.88440
H1431       H  0.01752741  0.94210518  0.60897233     0.35660
H1432       H  0.98424438  0.94086985  0.60706349     0.40750
H1433       H  0.50494421  0.92948302  0.68318799     0.40370
H1434       H  0.48604900  0.90213812  0.68136041     0.35260
C1435       C  0.48684455  0.80462327  0.64114566    -0.26470
C1436       C  0.00498148  0.80374076  0.65356705    -0.14540
C1437       C  0.02197385  0.82575042  0.65606121     0.36090
C1438       C  0.01967259  0.84819213  0.64655900    -0.25920
C1439       C  0.00009699  0.85037313  0.63473640    -0.15160
C1440       C  0.48486520  0.82694004  0.63136808     0.37170
N1441       N  0.46852704  0.82458937  0.61761311    -0.89410
H1442       H  0.47440917  0.78743944  0.63871672     0.18290
H1443       H  0.03296665  0.86460701  0.64888236     0.18280
N1444       N  0.04101407  0.82658891  0.66856644    -0.88440
H1445       H  0.47550813  0.80916961  0.61072985     0.35660
H1446       H  0.44931248  0.81947591  0.62123422     0.40750
H1447       H  0.05543660  0.81270517  0.66635948     0.40370
H1448       H  0.03147795  0.82210641  0.67923856     0.35260
O1449       O  0.63728828  0.15147340  0.76881285    -0.73100
O1450       O  0.58876385  0.09498349  0.75165555    -0.74080
O1451       O  0.63660267  0.09526513  0.76911305    -0.62700
O1452       O  0.58954300  0.15089115  0.75141218    -0.71110
O1453       O  0.61174239  0.15118806  0.72876795    -0.70660
O1454       O  0.65867145  0.09558550  0.74642637    -0.61910
O1455       O  0.61088242  0.09506644  0.72898527    -0.74420
O1456       O  0.65948138  0.15146483  0.74616779    -0.73200
Cu1457     Cu  0.61223475  0.12313396  0.76103156     1.04560
Cu1458     Cu  0.63601093  0.12331467  0.73681274     1.04330
C1459       C  0.65607594  0.16039353  0.76008529     0.93100
C1460       C  0.59202710  0.08621799  0.73768385     0.92240
C1461       C  0.65517298  0.08670167  0.76044695     0.84390
C1462       C  0.59318955  0.15982348  0.73741433     0.90660
O1463       O  0.88654893  0.09906503  0.72885521    -0.73100
O1464       O  0.83958308  0.15423161  0.74670285    -0.74080
O1465       O  0.88745168  0.15526718  0.72933214    -0.62700
O1466       O  0.83871656  0.09835508  0.74615884    -0.71110
O1467       O  0.86075281  0.09746391  0.76883185    -0.70660
O1468       O  0.90944361  0.15456563  0.75202226    -0.61910
O1469       O  0.86149880  0.15374198  0.76941890    -0.74420
O1470       O  0.90861998  0.09863366  0.75152117    -0.73200
Cu1471     Cu  0.86227019  0.12676871  0.73698711     1.04560
Cu1472     Cu  0.88588908  0.12609699  0.76123386     1.04330
C1473       C  0.90500683  0.09009037  0.73749812     0.93100
C1474       C  0.84301902  0.16265827  0.76076756     0.92240
C1475       C  0.90623181  0.16384725  0.73810417     0.84390
C1476       C  0.84203541  0.08886805  0.76001014     0.90660
N1477       N  0.55312184  0.20563875  0.71507353    -0.27440
N1478       N  0.54010298  0.20422401  0.72859213    -0.35300
C1479       C  0.55311360  0.18878874  0.73872159     0.00900
C1480       C  0.57540364  0.17988549  0.73124797     0.06920
C1481       C  0.57498099  0.19105325  0.71626683    -0.06180
H1482       H  0.54572272  0.18276235  0.75021518     0.07590
H1483       H  0.58864148  0.18762373  0.70669612     0.08790
Cu1484     Cu  0.50178101  0.21602699  0.73132134     0.44170
Cu1485     Cu  0.53780398  0.22489486  0.69552155     0.41990
Cu1486     Cu  0.96529412  0.22830119  0.69631096     0.43880
N1487       N  0.96214495  0.20704203  0.72924543    -0.34830
N1488       N  0.94875957  0.20951700  0.71594836    -0.29080
C1489       C  0.92575464  0.19576002  0.71727626    -0.05180
C1490       C  0.92493654  0.18406361  0.73212147     0.07030
C1491       C  0.94820072  0.19182183  0.73937829     0.00830
H1492       H  0.91162306  0.19299235  0.70780912     0.08480
H1493       H  0.95563887  0.18480622  0.75058681     0.07560
N1494       N  0.98962107  0.24958086  0.68081763    -0.36280
N1495       N  0.51571389  0.24827893  0.68050159    -0.28460
C1496       C  0.52537837  0.26655395  0.67033847    -0.03700
C1497       C  0.50442104  0.28031170  0.66410919     0.04910
C1498       C  0.98207304  0.26872744  0.67085853     0.03010
H1499       H  0.54618637  0.26972466  0.66798060     0.08110
H1500       H  0.96186388  0.27478707  0.66930652     0.06950
N1501       N  0.54903196  0.04207990  0.71513763    -0.27440
N1502       N  0.53598692  0.04354272  0.72861347    -0.35300
C1503       C  0.55017691  0.05803262  0.73888844     0.00900
C1504       C  0.57325713  0.06633315  0.73154918     0.06920
C1505       C  0.57206923  0.05573345  0.71649954    -0.06180
H1506       H  0.54301987  0.06421441  0.75030140     0.07590
H1507       H  0.58594764  0.05922306  0.70694509     0.08790
Cu1508     Cu  0.49644680  0.03419669  0.73096083     0.44170
Cu1509     Cu  0.53211286  0.02471270  0.69530148     0.41990
Cu1510     Cu  0.95948653  0.02475211  0.69569276     0.43880
N1511       N  0.95794879  0.04569427  0.72856811    -0.34830
N1512       N  0.94454339  0.04406905  0.71521293    -0.29080
C1513       C  0.92271322  0.05867358  0.71646709    -0.05180
C1514       C  0.92269459  0.07003836  0.73132386     0.07030
C1515       C  0.94519567  0.06123547  0.73866134     0.00830
H1516       H  0.90879035  0.06197792  0.70700202     0.08480
H1517       H  0.95290780  0.06742939  0.75000140     0.07560
N1518       N  0.98197546  0.50314478  0.68005353    -0.36280
N1519       N  0.50815833  0.50349879  0.67975108    -0.28460
C1520       C  0.51630774  0.48525877  0.66947811    -0.03700
C1521       C  0.49428038  0.47288223  0.66305473     0.04910
C1522       C  0.97286210  0.48453135  0.67005556     0.03010
H1523       H  0.53671343  0.48005835  0.66769451     0.08110
H1524       H  0.95226239  0.47880109  0.66872377     0.06950
N1525       N  0.80198943  0.20743617  0.78308835    -0.27440
N1526       N  0.78896835  0.20570244  0.76959615    -0.35300
C1527       C  0.80238926  0.19074139  0.75951101     0.00900
C1528       C  0.82494484  0.18237564  0.76696132     0.06920
C1529       C  0.82425833  0.19342649  0.78191053    -0.06180
H1530       H  0.79505896  0.18451378  0.74808864     0.07590
H1531       H  0.83802691  0.19025887  0.79147389     0.08790
Cu1532     Cu  0.75013240  0.21577230  0.76680189     0.44170
Cu1533     Cu  0.78603932  0.22627360  0.80258027     0.41990
Cu1534     Cu  0.71332130  0.22588267  0.80160635     0.43880
N1535       N  0.71092507  0.20484625  0.76885663    -0.34830
N1536       N  0.69744177  0.20670667  0.78214520    -0.29080
C1537       C  0.67487979  0.19226400  0.78088394    -0.05180
C1538       C  0.67445749  0.18073122  0.76608290     0.07030
C1539       C  0.69749218  0.18928509  0.75877914     0.00830
H1540       H  0.66076166  0.18905729  0.79034443     0.08480
H1541       H  0.70508643  0.18276927  0.74753980     0.07560
N1542       N  0.73632450  0.24814493  0.81704880    -0.36280
N1543       N  0.76246487  0.24829991  0.81752170    -0.28460
C1544       C  0.77078810  0.26698593  0.82769999    -0.03700
C1545       C  0.74889101  0.27926889  0.83393266     0.04910
C1546       C  0.72741628  0.26672793  0.82682899     0.03010
H1547       H  0.79135381  0.27196447  0.82989724     0.08110
H1548       H  0.70684645  0.27181427  0.82777917     0.06950
N1549       N  0.80083759  0.04093861  0.78136997    -0.27440
N1550       N  0.78722048  0.04387270  0.76820420    -0.35300
C1551       C  0.80054267  0.06022456  0.75840963     0.00900
C1552       C  0.82364260  0.06821468  0.76577534     0.06920
C1553       C  0.82337890  0.05551087  0.78032044    -0.06180
H1554       H  0.79284399  0.06759359  0.74734890     0.07590
H1555       H  0.83762918  0.05791804  0.78975644     0.08790
Cu1556     Cu  0.74798240  0.03320188  0.76610944     0.44170
Cu1557     Cu  0.78503688  0.02001740  0.80037276     0.41990
Cu1558     Cu  0.71228941  0.02198435  0.80196730     0.43880
N1559       N  0.70925512  0.04346936  0.76907422    -0.34830
N1560       N  0.69633329  0.04148361  0.78261114    -0.29080
C1561       C  0.67406578  0.05552465  0.78151611    -0.05180
C1562       C  0.67328972  0.06687777  0.76657546     0.07030
C1563       C  0.69578865  0.05865919  0.75904515     0.00830
H1564       H  0.66033844  0.05846341  0.79111799     0.08480
H1565       H  0.70302778  0.06508436  0.74759164     0.07560
N1566       N  0.73539515  0.49798347  0.81615348    -0.36280
N1567       N  0.76144875  0.49694107  0.81527042    -0.28460
C1568       C  0.76973712  0.47728371  0.82459217    -0.03700
C1569       C  0.74796511  0.46510161  0.83171284     0.04910
C1570       C  0.72653114  0.47914676  0.82621128     0.03010
H1571       H  0.79015105  0.47159024  0.82558556     0.08110
H1572       H  0.70592482  0.47613857  0.82907713     0.06950
C1573       C  0.49941349  0.37671764  0.62491676    -0.02640
O1574       O  0.77821341  0.01474904  0.47956387    -0.73100
O1575       O  0.72224384  0.46565920  0.49734257    -0.74080
O1576       O  0.72190829  0.01330206  0.47967834    -0.62700
O1577       O  0.77828296  0.46706970  0.49727931    -0.71110
O1578       O  0.77832450  0.48921920  0.51983108    -0.70660
O1579       O  0.72201538  0.03544834  0.50223147    -0.61910
O1580       O  0.72200852  0.48778360  0.51989849    -0.74420
O1581       O  0.77807562  0.03683155  0.50213471    -0.73200
Cu1582     Cu  0.75016560  0.48937907  0.48769240     1.04560
Cu1583     Cu  0.75010963  0.01313697  0.51179721     1.04330
C1584       C  0.78691134  0.03365648  0.48814004     0.93100
C1585       C  0.71334416  0.46886425  0.51131633     0.92240
C1586       C  0.71313142  0.03177632  0.48827102     0.84390
C1587       C  0.78711089  0.47073229  0.51125628     0.90660
O1588       O  0.72121227  0.26266594  0.52010894    -0.73100
O1589       O  0.77811228  0.21672076  0.50320293    -0.74080
O1590       O  0.77753664  0.26411765  0.52079358    -0.62700
O1591       O  0.72203194  0.21532419  0.50247782    -0.71110
O1592       O  0.72261753  0.23784550  0.47990440    -0.70660
O1593       O  0.77800400  0.28658270  0.49819936    -0.61910
O1594       O  0.77895197  0.23929094  0.48064302    -0.74420
O1595       O  0.72201193  0.28517185  0.49752635    -0.73200
Cu1596     Cu  0.74969350  0.23887055  0.51242244     1.04560
Cu1597     Cu  0.75041861  0.26303948  0.48829446     1.04330
C1598       C  0.71271743  0.28128604  0.51140506     0.93100
C1599       C  0.78749263  0.22070054  0.48935472     0.92240
C1600       C  0.78646934  0.28316600  0.51226563     0.84390
C1601       C  0.71360320  0.21880698  0.48840180     0.90660
N1602       N  0.66885088  0.17682408  0.46541638    -0.27440
N1603       N  0.67021982  0.16349414  0.47883428    -0.35300
C1604       C  0.68510213  0.17714819  0.48917500     0.00900
C1605       C  0.69377679  0.20019416  0.48196565     0.06920
C1606       C  0.68299500  0.19952868  0.46690012    -0.06180
H1607       H  0.69107888  0.16972987  0.50060839     0.07590
H1608       H  0.68649482  0.21363911  0.45745484     0.08790
Cu1609     Cu  0.65967069  0.12430818  0.48118361     0.44170
Cu1610     Cu  0.65054141  0.16076726  0.44553428     0.41990
Cu1611     Cu  0.65019307  0.08825842  0.44583244     0.43880
N1612       N  0.66980359  0.08548371  0.47902762    -0.34830
N1613       N  0.66820972  0.07234163  0.46562955    -0.29080
C1614       C  0.68217825  0.05013412  0.46704217    -0.05180
C1615       C  0.69311817  0.04958866  0.48205113     0.07030
C1616       C  0.68470255  0.07218374  0.48930985     0.00830
H1617       H  0.68557270  0.03641422  0.45755419     0.08480
H1618       H  0.69096544  0.07965714  0.50068739     0.07560
N1619       N  0.62927702  0.11103783  0.42987546    -0.36280
N1620       N  0.62942406  0.13714090  0.42967045    -0.28460
C1621       C  0.61149833  0.14527441  0.41906252    -0.03700
C1622       C  0.59955949  0.12329936  0.41223194     0.04910
C1623       C  0.61123133  0.10198107  0.41946885     0.03010
H1624       H  0.60624515  0.16562585  0.41723988     0.08110
H1625       H  0.60597169  0.08137158  0.41790596     0.06950
N1626       N  0.83385611  0.18135158  0.46727655    -0.27440
N1627       N  0.83128114  0.16738813  0.48041950    -0.35300
C1628       C  0.81569958  0.18010974  0.49052575     0.00900
C1629       C  0.80784463  0.20315564  0.48338781     0.06920
C1630       C  0.81983150  0.20349061  0.46865907    -0.06180
H1631       H  0.80859712  0.17196240  0.50162333     0.07590
H1632       H  0.81712099  0.21777554  0.45929150     0.08790
Cu1633     Cu  0.84104146  0.12836442  0.48214220     0.44170
Cu1634     Cu  0.85299926  0.16653664  0.44769003     0.41990
Cu1635     Cu  0.84955131  0.09412246  0.44579027     0.43880
N1636       N  0.83034030  0.08938441  0.47917608    -0.34830
N1637       N  0.83147729  0.07690350  0.46554341    -0.29080
C1638       C  0.81735350  0.05411273  0.46677334    -0.05180
C1639       C  0.80679541  0.05252332  0.48189083     0.07030
C1640       C  0.81559598  0.07510808  0.48939267     0.00830
H1641       H  0.81367442  0.04061092  0.45713403     0.08480
H1642       H  0.80979116  0.08182544  0.50097102     0.07560
N1643       N  0.87173063  0.11817298  0.43048158    -0.36280
N1644       N  0.87350786  0.14419706  0.43151369    -0.28460
C1645       C  0.89238547  0.15323295  0.42155032    -0.03700
C1646       C  0.90267269  0.13199921  0.41369918     0.04910
C1647       C  0.88921563  0.11008733  0.41964752     0.03010
H1648       H  0.89900648  0.17361248  0.42064805     0.08110
H1649       H  0.89316817  0.08967187  0.41710625     0.06950
N1650       N  0.66810781  0.42613480  0.53376986    -0.27440
N1651       N  0.67000039  0.41310721  0.52036785    -0.35300
C1652       C  0.68513674  0.42707664  0.51020433     0.00900
C1653       C  0.69341232  0.45002265  0.51752582     0.06920
C1654       C  0.68214417  0.44896014  0.53246760    -0.06180
H1655       H  0.69153356  0.41995287  0.49883188     0.07590
H1656       H  0.68521995  0.46288668  0.54195812     0.08790
Cu1657     Cu  0.65958792  0.37394443  0.51794274     0.44170
Cu1658     Cu  0.64909151  0.40947956  0.55331993     0.41990
Cu1659     Cu  0.64821687  0.33683697  0.55310397     0.43880
N1660       N  0.66939644  0.33500635  0.52021880    -0.34830
N1661       N  0.66715540  0.32149328  0.53355301    -0.29080
C1662       C  0.68103946  0.29923508  0.53226951    -0.05180
C1663       C  0.69258117  0.29904151  0.51741227     0.07030
C1664       C  0.68461944  0.32189319  0.51010738     0.00830
H1665       H  0.68392268  0.28520303  0.54175329     0.08480
H1666       H  0.69138472  0.32963786  0.49883720     0.07560
N1667       N  0.62614121  0.35954709  0.56836306    -0.36280
N1668       N  0.62655546  0.38564516  0.56849640    -0.28460
C1669       C  0.60799746  0.39385374  0.57860447    -0.03700
C1670       C  0.59500072  0.37196759  0.58500121     0.04910
C1671       C  0.60726562  0.35055073  0.57834442     0.03010
H1672       H  0.60327008  0.41429957  0.58046499     0.08110
H1673       H  0.60240066  0.32990372  0.58021481     0.06950
N1674       N  0.83204282  0.43037031  0.53403102    -0.27440
N1675       N  0.83013179  0.41689458  0.52076463    -0.35300
C1676       C  0.81517457  0.43004562  0.51044196     0.00900
C1677       C  0.80704634  0.45289053  0.51753738     0.06920
C1678       C  0.81820776  0.45264016  0.53249344    -0.06180
H1679       H  0.80869972  0.42234084  0.49916125     0.07590
H1680       H  0.81510618  0.46665523  0.54186373     0.08790
Cu1681     Cu  0.84005562  0.37796722  0.51887178     0.44170
Cu1682     Cu  0.85049826  0.41492515  0.55381941     0.41990
Cu1683     Cu  0.84941120  0.34230841  0.55465472     0.43880
N1684       N  0.82958548  0.33880282  0.52148918    -0.34830
N1685       N  0.83100090  0.32574315  0.53499596    -0.29080
C1686       C  0.81697451  0.30293598  0.53367674    -0.05180
C1687       C  0.80621661  0.30193022  0.51861456     0.07030
C1688       C  0.81478309  0.32487762  0.51124579     0.00830
H1689       H  0.81355479  0.28898732  0.54321670     0.08480
H1690       H  0.80879173  0.33203895  0.49975606     0.07560
N1691       N  0.87164092  0.36610690  0.56983705    -0.36280
N1692       N  0.87212687  0.39222855  0.56946755    -0.28460
C1693       C  0.89117483  0.40122434  0.57926243    -0.03700
C1694       C  0.90312932  0.37980249  0.58612132     0.04910
C1695       C  0.89033022  0.35788458  0.57991593     0.03010
H1696       H  0.89705044  0.42174569  0.58048989     0.08110
H1697       H  0.89545938  0.33750100  0.58173796     0.06950
O1698       O  0.88963572  0.40320326  0.27039153    -0.73100
O1699       O  0.84068891  0.34726632  0.25269101    -0.74080
O1700       O  0.88835540  0.34685532  0.27026293    -0.62700
O1701       O  0.84188008  0.40318731  0.25283447    -0.71110
O1702       O  0.86420001  0.40369138  0.23023488    -0.70660
O1703       O  0.91067303  0.34737306  0.24766389    -0.61910
O1704       O  0.86302979  0.34753630  0.23010024    -0.74420
O1705       O  0.91186920  0.40331058  0.24776756    -0.73200
Cu1706     Cu  0.86433043  0.37512039  0.26233022     1.04560
Cu1707     Cu  0.88826986  0.37549583  0.23817503     1.04330
C1708       C  0.90854535  0.41208162  0.26173190     0.93100
C1709       C  0.84405637  0.33864258  0.23869064     0.92240
C1710       C  0.90686696  0.33818674  0.26159008     0.84390
C1711       C  0.84558218  0.41224120  0.23886978     0.90660
O1712       O  0.63737104  0.34552453  0.23009974    -0.73100
O1713       O  0.59109556  0.40159462  0.24764855    -0.74080
O1714       O  0.63856723  0.40167993  0.22982699    -0.62700
O1715       O  0.58989544  0.34564730  0.24792624    -0.71110
O1716       O  0.61234247  0.34558194  0.27045748    -0.70660
O1717       O  0.66107722  0.40161749  0.25233768    -0.61910
O1718       O  0.61361769  0.40182511  0.27015624    -0.74420
O1719       O  0.65987078  0.34570029  0.25261573    -0.73200
Cu1720     Cu  0.61339246  0.37360025  0.23810979     1.04560
Cu1721     Cu  0.63755249  0.37367767  0.26216586     1.04330
C1722       C  0.65606905  0.33686133  0.23867316     0.93100
C1723       C  0.59499352  0.41056294  0.26155174     0.92240
C1724       C  0.65762287  0.41043316  0.23833117     0.84390
C1725       C  0.59331776  0.33681315  0.26193124     0.90660
N1726       N  0.95077902  0.45810865  0.28367548    -0.27440
N1727       N  0.96402961  0.45589575  0.27032040    -0.35300
C1728       C  0.95026855  0.44040907  0.26036792     0.00900
C1729       C  0.92723277  0.43218059  0.26778034     0.06920
C1730       C  0.92800925  0.44387828  0.28255923    -0.06180
H1731       H  0.95762929  0.43372811  0.24910798     0.07590
H1732       H  0.91392991  0.44099996  0.29207236     0.08790
Cu1733     Cu  0.50335909  0.46602689  0.26785214     0.44170
Cu1734     Cu  0.96730016  0.47779015  0.30291365     0.41990
Cu1735     Cu  0.54015298  0.47637519  0.30306183     0.43880
N1736       N  0.54195461  0.45492059  0.27031037    -0.34830
N1737       N  0.55532134  0.45675353  0.28367093    -0.29080
C1738       C  0.57725295  0.44226258  0.28246831    -0.05180
C1739       C  0.57735516  0.43075183  0.26764213     0.07030
C1740       C  0.55480297  0.43935808  0.26027783     0.00830
H1741       H  0.59117404  0.43910350  0.29195316     0.08480
H1742       H  0.54709875  0.43297081  0.24897383     0.07560
N1743       N  0.51768714  0.99941966  0.31800298    -0.36280
N1744       N  0.99154180  0.00001402  0.31789207    -0.28460
C1745       C  0.98367728  0.01863045  0.32800110    -0.03700
C1746       C  0.50583310  0.03060011  0.33469062     0.04910
C1747       C  0.52704406  0.01760436  0.32820417     0.03010
H1748       H  0.96329197  0.02380781  0.32989733     0.08110
H1749       H  0.54780100  0.02092237  0.33059625     0.06950
N1750       N  0.80180210  0.29390784  0.21596663    -0.27440
N1751       N  0.78855900  0.29525062  0.22937866    -0.35300
C1752       C  0.80234207  0.31010900  0.23966940     0.00900
C1753       C  0.82538107  0.31875876  0.23241465     0.06920
C1754       C  0.82457277  0.30800422  0.21739100    -0.06180
H1755       H  0.79500427  0.31609856  0.25107882     0.07590
H1756       H  0.83859701  0.31153318  0.20791736     0.08790
Cu1757     Cu  0.74930558  0.28456371  0.23166037     0.44170
Cu1758     Cu  0.78549411  0.27579804  0.19615601     0.41990
Cu1759     Cu  0.71276700  0.27459354  0.19623740     0.43880
N1760       N  0.71023778  0.29421695  0.22941267    -0.34830
N1761       N  0.69691856  0.29251059  0.21602832    -0.29080
C1762       C  0.67451425  0.30621376  0.21744897    -0.05180
C1763       C  0.67402476  0.31707236  0.23244537     0.07030
C1764       C  0.69686077  0.30889462  0.23968196     0.00830
H1765       H  0.66059347  0.30947231  0.20797663     0.08480
H1766       H  0.70442824  0.31517766  0.25103893     0.07560
N1767       N  0.73589509  0.25385985  0.18044958    -0.36280
N1768       N  0.76206245  0.25443258  0.18036129    -0.28460
C1769       C  0.77059823  0.23659053  0.16994853    -0.03700
C1770       C  0.74883806  0.22406967  0.16314187     0.04910
C1771       C  0.72718887  0.23557663  0.17012664     0.03010
H1772       H  0.79113725  0.23173719  0.16836951     0.08110
H1773       H  0.70658778  0.23017687  0.16841770     0.06950
N1774       N  0.94609465  0.29100313  0.28352871    -0.27440
N1775       N  0.95982529  0.29355058  0.27031895    -0.35300
C1776       C  0.94720972  0.30958818  0.26034794     0.00900
C1777       C  0.92444587  0.31778795  0.26761934     0.06920
C1778       C  0.92417967  0.30553082  0.28231338    -0.06180
H1779       H  0.95521153  0.31658150  0.24919131     0.07590
H1780       H  0.91001876  0.30820350  0.29171970     0.08790
Cu1781     Cu  0.49856971  0.28276858  0.26824757     0.44170
Cu1782     Cu  0.96101152  0.27063921  0.30280955     0.41990
Cu1783     Cu  0.53383566  0.27276136  0.30415304     0.43880
N1784       N  0.53776886  0.29315923  0.27098486    -0.34830
N1785       N  0.55065459  0.29160000  0.28451646    -0.29080
C1786       C  0.57344276  0.30579487  0.28325466    -0.05180
C1787       C  0.57459524  0.31681552  0.26821545     0.07030
C1788       C  0.55176804  0.30821598  0.26079979     0.00830
H1789       H  0.58725504  0.30916090  0.29282348     0.08480
H1790       H  0.54468987  0.31436976  0.24932548     0.07560
N1791       N  0.50980183  0.25006971  0.31922729    -0.36280
N1792       N  0.98365056  0.24878562  0.31841138    -0.28460
C1793       C  0.97460603  0.22980317  0.32831959    -0.03700
C1794       C  0.49597422  0.21892292  0.33589317     0.04910
C1795       C  0.51796475  0.23215202  0.32984776     0.03010
H1796       H  0.95405931  0.22374900  0.32951572     0.08110
H1797       H  0.53844093  0.22802042  0.33232596     0.06950
N1798       N  0.80501604  0.45739552  0.21636194    -0.27440
N1799       N  0.79143875  0.45510428  0.22964419    -0.35300
C1800       C  0.80464186  0.44000870  0.23987024     0.00900
C1801       C  0.82762969  0.43217369  0.23269195     0.06920
C1802       C  0.82740517  0.44366027  0.21778731    -0.06180
H1803       H  0.79687889  0.43324208  0.25113381     0.07590
H1804       H  0.84151746  0.44084587  0.20837166     0.08790
Cu1805     Cu  0.75232051  0.46469904  0.23161705     0.44170
Cu1806     Cu  0.78944151  0.47612707  0.19669375     0.41990
Cu1807     Cu  0.71666464  0.47399964  0.19577511     0.43880
N1808       N  0.71314403  0.45399432  0.22903747    -0.34830
N1809       N  0.70012016  0.45543950  0.21554879    -0.29080
C1810       C  0.67734664  0.44127236  0.21692147    -0.05180
C1811       C  0.67632799  0.43037838  0.23198831     0.07030
C1812       C  0.69923140  0.43901829  0.23931186     0.00830
H1813       H  0.66345236  0.43782977  0.20740382     0.08480
H1814       H  0.70639469  0.43297252  0.25078748     0.07560
N1815       N  0.74040867  0.99621585  0.18034567    -0.36280
N1816       N  0.76658311  0.99724910  0.18086976    -0.28460
C1817       C  0.77548457  0.01618787  0.17089730    -0.03700
C1818       C  0.75398756  0.02735028  0.16363332     0.04910
C1819       C  0.73207727  0.01435663  0.16991846     0.03010
H1820       H  0.79598518  0.02241550  0.16971598     0.08110
H1821       H  0.71158616  0.01902032  0.16790307     0.06950
C1822       C  0.49960687  0.12370606  0.37609630    -0.02640
O1823       O  0.52862527  0.23680844  0.02163119    -0.73100
O1824       O  0.97254739  0.28382652  0.00455734    -0.74080
O1825       O  0.97225987  0.23570549  0.02176993    -0.62700
O1826       O  0.52858359  0.28480580  0.00436561    -0.71110
O1827       O  0.52842751  0.26314695  0.98163942    -0.70660
O1828       O  0.97221314  0.21417054  0.99900417    -0.61910
O1829       O  0.97205460  0.26226539  0.98180165    -0.74420
O1830       O  0.52828665  0.21516285  0.99890375    -0.73200
Cu1831     Cu  0.50050284  0.26107839  0.01386260     1.04560
Cu1832     Cu  0.50022827  0.23789088  0.98955510     1.04330
C1833       C  0.53732388  0.21853082  0.01286422     0.93100
C1834       C  0.96349654  0.28059072  0.99059814     0.92240
C1835       C  0.96341203  0.21708420  0.01301928     0.84390
C1836       C  0.53737300  0.28175569  0.99035235     0.90660
O1837       O  0.97410971  0.48650611  0.98112863    -0.73100
O1838       O  0.53089221  0.03514320  0.99806605    -0.74080
O1839       O  0.53057174  0.48737430  0.98079318    -0.62700
O1840       O  0.97475992  0.03419708  0.99843076    -0.71110
O1841       O  0.97480450  0.01204627  0.02113188    -0.70660
O1842       O  0.53058012  0.46541761  0.00356061    -0.61910
O1843       O  0.53120264  0.01310340  0.02080521    -0.74420
O1844       O  0.97455668  0.46444832  0.00385959    -0.73200
Cu1845     Cu  0.50258562  0.01162356  0.98881833     1.04560
Cu1846     Cu  0.50280525  0.48795360  0.01311463     1.04330
C1847       C  0.96537884  0.46774479  0.98994484     0.93100
C1848       C  0.53996003  0.03188025  0.01201079     0.92240
C1849       C  0.53933853  0.46890504  0.98952500     0.84390
C1850       C  0.96594042  0.03050802  0.01244490     0.90660
N1851       N  0.91915860  0.06964365  0.03456996    -0.27440
N1852       N  0.92142995  0.08337168  0.02131373    -0.35300
C1853       C  0.93732455  0.07083632  0.01129797     0.00900
C1854       C  0.94572203  0.04812492  0.01857039     0.06920
C1855       C  0.93373522  0.04781054  0.03332186    -0.06180
H1856       H  0.94402504  0.07881413  0.00007120     0.07590
H1857       H  0.93655170  0.03360512  0.04271990     0.08790
Cu1858     Cu  0.91031491  0.12192085  0.01902648     0.44170
Cu1859     Cu  0.89880946  0.08416555  0.05393082     0.41990
Cu1860     Cu  0.89965055  0.15670515  0.05465136     0.43880
N1861       N  0.92014930  0.16116275  0.02165882    -0.34830
N1862       N  0.91831172  0.17387852  0.03517131    -0.29080
C1863       C  0.93225410  0.19677388  0.03402632    -0.05180
C1864       C  0.94341112  0.19820470  0.01906994     0.07030
C1865       C  0.93515358  0.17541693  0.01157181     0.00830
H1866       H  0.93541383  0.21044795  0.04363859     0.08480
H1867       H  0.94158864  0.16853039  0.00015281     0.07560
N1868       N  0.87696839  0.13269899  0.06961107    -0.36280
N1869       N  0.87631867  0.10658295  0.06924674    -0.28460
C1870       C  0.85709658  0.09756767  0.07901688    -0.03700
C1871       C  0.84522919  0.11900512  0.08582113     0.04910
C1872       C  0.85829877  0.14090327  0.07965377     0.03010
H1873       H  0.85129017  0.07703592  0.08042907     0.08110
H1874       H  0.85353697  0.16131837  0.08159198     0.06950
N1875       N  0.58478621  0.42808727  0.96751926    -0.27440
N1876       N  0.58247870  0.41486268  0.98095049    -0.35300
C1877       C  0.56721361  0.42817220  0.99093740     0.00900
C1878       C  0.55923959  0.45087240  0.98346635     0.06920
C1879       C  0.57084418  0.45037123  0.96861501    -0.06180
H1880       H  0.56049598  0.42068743  0.00227850     0.07590
H1881       H  0.56808461  0.46427618  0.95904997     0.08790
Cu1882     Cu  0.59229493  0.37598667  0.98354782     0.44170
Cu1883     Cu  0.60420172  0.41217522  0.94824352     0.41990
Cu1884     Cu  0.60267531  0.33957064  0.94838358     0.43880
N1885       N  0.58147568  0.33689905  0.98130763    -0.34830
N1886       N  0.58335834  0.32364029  0.96798626    -0.29080
C1887       C  0.56901876  0.30103207  0.96933229    -0.05180
C1888       C  0.55755533  0.30033915  0.98421203     0.07030
C1889       C  0.56602662  0.32326871  0.99147117     0.00830
H1890       H  0.56588999  0.28700819  0.95989838     0.08480
H1891       H  0.55956376  0.33063071  0.00277330     0.07560
N1892       N  0.62548714  0.36282479  0.93311108    -0.36280
N1893       N  0.62619282  0.38891456  0.93315259    -0.28460
C1894       C  0.64514466  0.39754221  0.92312642    -0.03700
C1895       C  0.65694092  0.37591458  0.91633981     0.04910
C1896       C  0.64390541  0.35425680  0.92301533     0.03010
H1897       H  0.65090945  0.41806527  0.92169186     0.08110
H1898       H  0.64812621  0.33370161  0.92113102     0.06950
N1899       N  0.58565424  0.07402282  0.03410209    -0.27440
N1900       N  0.58342768  0.08745043  0.02077479    -0.35300
C1901       C  0.56819083  0.07367991  0.01066894     0.00900
C1902       C  0.56017268  0.05048758  0.01798102     0.06920
C1903       C  0.57172831  0.05117272  0.03282589    -0.06180
H1904       H  0.56137942  0.08116716  0.99942510     0.07590
H1905       H  0.56876765  0.03704793  0.04232320     0.08790
Cu1906     Cu  0.59293141  0.12691176  0.01863741     0.44170
Cu1907     Cu  0.60426577  0.09029579  0.05373409     0.41990
Cu1908     Cu  0.60277114  0.16265478  0.05439140     0.43880
N1909       N  0.58176892  0.16533147  0.02138435    -0.34830
N1910       N  0.58352157  0.17826323  0.03485864    -0.29080
C1911       C  0.56900414  0.20016621  0.03374204    -0.05180
C1912       C  0.55755545  0.20072713  0.01886212     0.07030
C1913       C  0.56623136  0.17846301  0.01136658     0.00830
H1914       H  0.56574002  0.21373662  0.04332494     0.08480
H1915       H  0.55989446  0.17113084  0.99997071     0.07560
N1916       N  0.62429463  0.13984698  0.07011488    -0.36280
N1917       N  0.62483314  0.11377965  0.06981358    -0.28460
C1918       C  0.64257483  0.10547498  0.08045017    -0.03700
C1919       C  0.65361111  0.12725523  0.08796598     0.04910
C1920       C  0.64167568  0.14871684  0.08099064     0.03010
H1921       H  0.64809170  0.08513440  0.08198345     0.08110
H1922       H  0.64609696  0.16933357  0.08319129     0.06950
N1923       N  0.91829047  0.42605876  0.96846838    -0.27440
N1924       N  0.92085211  0.41272713  0.98181170    -0.35300
C1925       C  0.93681257  0.42627570  0.99161421     0.00900
C1926       C  0.94496910  0.44923013  0.98411045     0.06920
C1927       C  0.93275509  0.44864731  0.96944558    -0.06180
H1928       H  0.94379320  0.41884282  0.00283315     0.07590
H1929       H  0.93539100  0.46275710  0.95991027     0.08790
Cu1930     Cu  0.91029696  0.37362107  0.98456519     0.44170
Cu1931     Cu  0.89774910  0.41018393  0.94936178     0.41990
Cu1932     Cu  0.89739924  0.33748258  0.94984131     0.43880
N1933       N  0.92024791  0.33478462  0.98221173    -0.34830
N1934       N  0.91750216  0.32155837  0.96890641    -0.29080
C1935       C  0.93143712  0.29925887  0.96997222    -0.05180
C1936       C  0.94350372  0.29873426  0.98468045     0.07030
C1937       C  0.93582064  0.32145641  0.99210154     0.00830
H1938       H  0.93383451  0.28533496  0.96047262     0.08480
H1939       H  0.94289300  0.32891340  0.00331666     0.07560
N1940       N  0.87440863  0.36031774  0.93497026    -0.36280
N1941       N  0.87452716  0.38640498  0.93470332    -0.28460
C1942       C  0.85565599  0.39446053  0.92469105    -0.03700
C1943       C  0.84300146  0.37245027  0.91831047     0.04910
C1944       C  0.85544720  0.35118187  0.92519593     0.03010
H1945       H  0.85103629  0.41489042  0.92255134     0.08110
H1946       H  0.85025987  0.33051500  0.92395188     0.06950
C1947       C  0.75098185  0.12560980  0.12639963    -0.02640
C1948       C  0.75137203  0.37330742  0.87502986    -0.02640
C1949       C  0.80160311  0.39242680  0.90813684    -0.26470
C1950       C  0.81973201  0.37193090  0.90757336    -0.14540
C1951       C  0.81505051  0.35110329  0.89696455     0.36090
C1952       C  0.79277807  0.35120408  0.88715693    -0.25920
C1953       C  0.77533478  0.37264430  0.88668758    -0.15160
C1954       C  0.77954470  0.39288258  0.89806541     0.37170
N1955       N  0.76172195  0.41434892  0.89924697    -0.89410
H1956       H  0.80439887  0.40827556  0.91653137     0.18290
H1957       H  0.78951855  0.33391163  0.88002670     0.18280
N1958       N  0.83320370  0.32994610  0.89571719    -0.88440
H1959       H  0.77242867  0.43201885  0.89764111     0.35660
H1960       H  0.75392636  0.41429519  0.91068842     0.40750
H1961       H  0.84005855  0.32938257  0.88407017     0.40370
H1962       H  0.82288927  0.31226169  0.89805827     0.35260
C1963       C  0.69674645  0.14653040  0.09642608    -0.26470
C1964       C  0.67655359  0.12761328  0.09888501    -0.14540
C1965       C  0.67946812  0.10885039  0.11115072     0.36090
C1966       C  0.70334074  0.10807697  0.11953596    -0.25920
C1967       C  0.72467062  0.12602881  0.11654722    -0.15160
C1968       C  0.72028304  0.14623525  0.10516824     0.37170
N1969       N  0.73999234  0.16635991  0.10216369    -0.89410
H1970       H  0.69461740  0.16141556  0.08730985     0.18290
H1971       H  0.70415904  0.09397319  0.12910690     0.18280
N1972       N  0.65846280  0.09086906  0.11589985    -0.88440
H1973       H  0.74512743  0.16574518  0.09020708     0.35660
H1974       H  0.73163391  0.18464546  0.10436201     0.40750
H1975       H  0.64069414  0.09526507  0.11036797     0.40370
H1976       H  0.65489454  0.09393462  0.12791328     0.35260
C1977       C  0.69818916  0.35500885  0.90690151    -0.26470
C1978       C  0.68043980  0.37577048  0.90576537    -0.14540
C1979       C  0.68586440  0.39638824  0.89494167     0.36090
C1980       C  0.70895082  0.39594458  0.88573506    -0.25920
C1981       C  0.72631774  0.37436536  0.88600787    -0.15160
C1982       C  0.72088500  0.35418190  0.89738542     0.37170
N1983       N  0.73829490  0.33247928  0.89923624    -0.89410
H1984       H  0.69470102  0.33930522  0.91542290     0.18290
H1985       H  0.71319688  0.41316589  0.87860076     0.18280
N1986       N  0.66776220  0.41765647  0.89311048    -0.88440
H1987       H  0.74508919  0.33235532  0.91089778     0.35660
H1988       H  0.72745245  0.31498742  0.89736818     0.40750
H1989       H  0.65008568  0.40967739  0.88863212     0.40370
H1990       H  0.67469811  0.43137746  0.88473694     0.35260
C1991       C  0.82411079  0.12313806  0.11187424    -0.26470
C1992       C  0.82123363  0.11899599  0.09568923    -0.14540
C1993       C  0.79561768  0.11564046  0.08928935     0.36090
C1994       C  0.77355871  0.11733530  0.09923427    -0.25920
C1995       C  0.77592460  0.12345044  0.11549117    -0.15160
C1996       C  0.80203209  0.12477377  0.12181379     0.37170
N1997       N  0.80639059  0.12811711  0.13838206    -0.89250
H1998       H  0.84376144  0.12513267  0.11689480     0.18290
H1999       H  0.75447735  0.11343008  0.09393293     0.18280
N2000       N  0.79104222  0.11050319  0.07280578    -0.88440
H2001       H  0.81803184  0.14517044  0.14003157     0.35660
H2002       H  0.81708122  0.11206027  0.14248980     0.40750
H2003       H  0.80861795  0.10963120  0.06641349     0.40370
H2004       H  0.78068002  0.12639222  0.06817750     0.35260
C2005       C  0.75828006  0.07573417  0.16183925    -0.26470
C2006       C  0.75409928  0.05174145  0.15411540    -0.14540
C2007       C  0.75054606  0.05161181  0.13761857     0.36090
C2008       C  0.75035332  0.07564170  0.12940278    -0.25920
C2009       C  0.75249387  0.10037146  0.13709991    -0.15160
C2010       C  0.75800776  0.09988140  0.15365402     0.37170
N2011       N  0.76485926  0.12323709  0.16229260    -0.89410
H2012       H  0.76204095  0.07574179  0.17444998     0.18290
H2013       H  0.74758844  0.07502157  0.11671813     0.18280
N2014       N  0.74695622  0.02765672  0.12877844    -0.88440
H2015       H  0.78371728  0.12099909  0.16709552     0.35660
H2016       H  0.75166337  0.12480750  0.17173165     0.40750
H2017       H  0.74735726  0.51097024  0.13603025     0.40370
H2018       H  0.76295067  0.02630038  0.12102012     0.35260
C2019       C  0.98687702  0.17136127  0.34019344    -0.26470
C2020       C  0.49572821  0.19552011  0.34633129    -0.14540
C2021       C  0.50419051  0.19669769  0.36217099     0.36090
C2022       C  0.50427446  0.17353611  0.37123480    -0.25920
C2023       C  0.49802965  0.14838039  0.36484123    -0.15160
C2024       C  0.98752867  0.14799761  0.34917946     0.37170
N2025       N  0.97637039  0.12449423  0.34236833    -0.89410
H2026       H  0.97942315  0.17055596  0.32819535     0.18290
H2027       H  0.51037119  0.17522604  0.38341896     0.18280
N2028       N  0.51218593  0.22098465  0.36965563    -0.88440
H2029       H  0.98650567  0.12071985  0.33188072     0.35660
H2030       H  0.95666262  0.12798443  0.33946541     0.40750
H2031       H  0.51024139  0.23722853  0.36217182     0.40370
H2032       H  0.53225893  0.21972282  0.37242368     0.35260
C2033       C  0.72900867  0.18092978  0.15490354    -0.26470
C2034       C  0.74881862  0.20037977  0.15290719    -0.14540
C2035       C  0.76861351  0.19659759  0.14149131     0.36090
C2036       C  0.76902926  0.17284289  0.13301900    -0.25920
C2037       C  0.75044432  0.15202568  0.13583455    -0.15160
C2038       C  0.72942936  0.15719137  0.14650989     0.37170
N2039       N  0.70862632  0.13806344  0.14919836    -0.89410
H2040       H  0.71335257  0.18372039  0.16342417     0.18290
H2041       H  0.78368528  0.17130700  0.12383994     0.18280
N2042       N  0.78793141  0.21714591  0.13824643    -0.88440
H2043       H  0.69071194  0.14667943  0.14620362     0.35660
H2044       H  0.70799724  0.13346273  0.16124501     0.40750
H2045       H  0.77792365  0.23322083  0.13356517     0.40370
H2046       H  0.80128712  0.21125828  0.12959407     0.35260
C2047       C  0.98688846  0.05262857  0.35797373    -0.26470
C2048       C  0.50588674  0.05291292  0.34598813    -0.14540
C2049       C  0.52323199  0.07493419  0.34468663     0.36090
C2050       C  0.52061211  0.09613275  0.35498045    -0.25920
C2051       C  0.50058921  0.09707667  0.36669832    -0.15160
C2052       C  0.98438242  0.07346223  0.36866179     0.37170
N2053       N  0.96634011  0.06800845  0.38146173    -0.89410
H2054       H  0.97406077  0.03535753  0.35939002     0.18290
H2055       H  0.53383658  0.11294842  0.35319040     0.18280
N2056       N  0.54277355  0.07729352  0.33248845    -0.88440
H2057       H  0.94698984  0.06840918  0.37715881     0.35660
H2058       H  0.96827249  0.08023309  0.39113358     0.40750
H2059       H  0.53367730  0.07420745  0.32154819     0.40370
H2060       H  0.55711461  0.06316310  0.33435310     0.35260
C2061       C  0.95062853  0.14012663  0.41029473    -0.26470
C2062       C  0.92649464  0.13201161  0.40366977    -0.14540
C2063       C  0.92583592  0.12359634  0.38783956     0.36090
C2064       C  0.94953971  0.12235174  0.37936579    -0.25920
C2065       C  0.97451378  0.12718176  0.38646451    -0.15160
C2066       C  0.97445984  0.13831713  0.40189437     0.37170
N2067       N  0.49799360  0.14907971  0.40897010    -0.89410
H2068       H  0.95105556  0.14776498  0.42223012     0.18290
H2069       H  0.94841487  0.11588848  0.36725631     0.18280
N2070       N  0.90162506  0.11655456  0.37984850    -0.88440
H2071       H  0.50079698  0.13963443  0.41983088     0.35660
H2072       H  0.49503817  0.16904493  0.41122242     0.40750
H2073       H  0.88506314  0.11929382  0.38694776     0.40370
H2074       H  0.90216932  0.09644568  0.37726126     0.35260
C2075       C  0.54874911  0.13871228  0.38048307    -0.26470
C2076       C  0.52633146  0.12360404  0.38560006    -0.14540
C2077       C  0.53045623  0.10580308  0.39836206     0.36090
C2078       C  0.55456723  0.10588881  0.40652432    -0.25920
C2079       C  0.57564470  0.12267398  0.40213139    -0.15160
C2080       C  0.57300291  0.13862961  0.38852009     0.37170
N2081       N  0.59456211  0.15433405  0.38212101    -0.89410
H2082       H  0.54816393  0.15020608  0.36971506     0.18290
H2083       H  0.55655560  0.09295302  0.41667125     0.18280
N2084       N  0.01011159  0.08769765  0.40338775    -0.88440
H2085       H  0.59800121  0.14779235  0.37062461     0.35660
H2086       H  0.61214431  0.15129318  0.38820202     0.40750
H2087       H  0.01726517  0.06859332  0.40242694     0.40370
H2088       H  0.00602732  0.09114264  0.41529749     0.35260
C2089       C  0.57034864  0.39156072  0.60718895    -0.26470
C2090       C  0.57162397  0.37211858  0.59560148    -0.14540
C2091       C  0.55058862  0.35364404  0.59422716     0.36090
C2092       C  0.52850679  0.35561770  0.60416003    -0.25920
C2093       C  0.52590439  0.37621249  0.61523119    -0.15160
C2094       C  0.54854526  0.39334716  0.61741909     0.37170
N2095       N  0.55039847  0.41185090  0.63019763    -0.89410
H2096       H  0.58707171  0.40505199  0.60863353     0.18290
H2097       H  0.51243947  0.34144101  0.60273753     0.18280
N2098       N  0.55113876  0.33345896  0.58238933    -0.88440
H2099       H  0.56710877  0.42421886  0.62906271     0.35660
H2100       H  0.55295712  0.40125612  0.64065321     0.40750
H2101       H  0.55057968  0.34278450  0.57135113     0.40370
H2102       H  0.53424163  0.32125798  0.58308128     0.35260
C2103       C  0.97554688  0.38200529  0.59780862    -0.26470
C2104       C  0.97413901  0.37797203  0.61435018    -0.14540
C2105       C  0.94844778  0.37666022  0.62129795     0.36090
C2106       C  0.92577070  0.37737892  0.61181101    -0.25920
C2107       C  0.92768027  0.38005626  0.59543995    -0.15160
C2108       C  0.95287142  0.38282780  0.58834175     0.37170
N2109       N  0.95639440  0.38617186  0.57157632    -0.89410
H2110       H  0.99427591  0.38526503  0.59193049     0.18290
H2111       H  0.90644847  0.37565297  0.61731521     0.18280
N2112       N  0.94522616  0.37370183  0.63802944    -0.88440
H2113       H  0.96502578  0.40483715  0.56966100     0.35660
H2114       H  0.93847123  0.38579590  0.56549951     0.40750
H2115       H  0.93416504  0.35641435  0.64023131     0.40370
H2116       H  0.93439530  0.38959756  0.64212525     0.35260
C2117       C  0.77097962  0.43834862  0.85188671    -0.26470
C2118       C  0.74854402  0.44169375  0.84242601    -0.14540
C2119       C  0.72884628  0.42145735  0.84249022     0.36090
C2120       C  0.73134335  0.39973389  0.85256085    -0.25920
C2121       C  0.75260701  0.39735529  0.86330141    -0.15160
C2122       C  0.77377787  0.41627810  0.86177187     0.37170
N2123       N  0.79897124  0.41272337  0.86908802    -0.89410
H2124       H  0.78702329  0.45283650  0.85143224     0.18290
H2125       H  0.71564194  0.38484673  0.85250500     0.18280
N2126       N  0.70637324  0.42169640  0.83223465    -0.88440
H2127       H  0.80351403  0.42942898  0.87582402     0.35660
H2128       H  0.81325695  0.41161463  0.86019980     0.40750
H2129       H  0.71273460  0.42503038  0.82062870     0.40370
H2130       H  0.69377530  0.43652098  0.83579955     0.35260
C2131       C  0.77007748  0.32100123  0.84356083    -0.26470
C2132       C  0.74876367  0.30292448  0.84423839    -0.14540
C2133       C  0.72746576  0.30823545  0.85435605     0.36090
C2134       C  0.72795400  0.33111553  0.86358079    -0.25920
C2135       C  0.75019446  0.34856330  0.86395877    -0.15160
C2136       C  0.77087986  0.34363708  0.85300743     0.37170
N2137       N  0.79312455  0.36143864  0.85155338    -0.89410
H2138       H  0.78628042  0.31781664  0.83547684     0.18290
H2139       H  0.71040797  0.33478413  0.87038262     0.18280
N2140       N  0.70540714  0.29016771  0.85568068    -0.88440
H2141       H  0.79397848  0.36825836  0.83988134     0.35660
H2142       H  0.81032106  0.35099658  0.85380640     0.40750
H2143       H  0.68826798  0.30025747  0.85276448     0.40370
H2144       H  0.70385229  0.28408123  0.86747432     0.35260
C2145       C  0.49657950  0.45036251  0.63729494    -0.26470
C2146       C  0.49403106  0.44859746  0.65365845    -0.14540
C2147       C  0.99165960  0.42374271  0.66097208     0.36090
C2148       C  0.99283295  0.40086469  0.65174396    -0.25920
C2149       C  0.49727679  0.40206897  0.63522797    -0.15160
C2150       C  0.49776485  0.42760534  0.62802325     0.37170
N2151       N  0.50052922  0.43061168  0.61126507    -0.89410
H2152       H  0.49791687  0.46958453  0.63165205     0.18290
H2153       H  0.98953410  0.38221745  0.65767084     0.18280
N2154       N  0.98786852  0.42185613  0.67778123    -0.88440
H2155       H  0.51752745  0.44210519  0.60897233     0.35660
H2156       H  0.48424442  0.44086986  0.60706349     0.40750
H2157       H  0.00494417  0.42948301  0.68318798     0.40370
H2158       H  0.98604897  0.40213811  0.68136041     0.35260
C2159       C  0.98684456  0.30462326  0.64114564    -0.26470
C2160       C  0.50498150  0.30374076  0.65356705    -0.14540
C2161       C  0.52197386  0.32575042  0.65606121     0.36090
C2162       C  0.51967261  0.34819214  0.64655900    -0.25920
C2163       C  0.50009701  0.35037313  0.63473640    -0.15160
C2164       C  0.98486521  0.32694003  0.63136807     0.37170
N2165       N  0.96852706  0.32458936  0.61761310    -0.89410
H2166       H  0.97440919  0.28743943  0.63871670     0.18290
H2167       H  0.53296667  0.36460702  0.64888237     0.18280
N2168       N  0.54101408  0.32658891  0.66856645    -0.88440
H2169       H  0.97550815  0.30916960  0.61072984     0.35660
H2170       H  0.94931250  0.31947590  0.62123420     0.40750
H2171       H  0.55543661  0.31270517  0.66635948     0.40370
H2172       H  0.53147795  0.32210640  0.67923856     0.35260
O2173       O  0.63728806  0.65147279  0.76881278    -0.73100
O2174       O  0.58876365  0.59498294  0.75165537    -0.74080
O2175       O  0.63660245  0.59526452  0.76911291    -0.62700
O2176       O  0.58954282  0.65089061  0.75141207    -0.71110
O2177       O  0.61174226  0.65118758  0.72876786    -0.70660
O2178       O  0.65867127  0.59558495  0.74642624    -0.61910
O2179       O  0.61088227  0.59506595  0.72898510    -0.74420
O2180       O  0.65948121  0.65146428  0.74616774    -0.73200
Cu2181     Cu  0.61223454  0.62313337  0.76103144     1.04560
Cu2182     Cu  0.63601077  0.62331415  0.73681263     1.04330
C2183       C  0.65607574  0.66039295  0.76008525     0.93100
C2184       C  0.59202692  0.58621748  0.73768365     0.92240
C2185       C  0.65517278  0.58670110  0.76044682     0.84390
C2186       C  0.59318942  0.65982299  0.73741424     0.90660
O2187       O  0.88654896  0.59906501  0.72885531    -0.73100
O2188       O  0.83958297  0.65423155  0.74670285    -0.74080
O2189       O  0.88745163  0.65526716  0.72933219    -0.62700
O2190       O  0.83871654  0.59835503  0.74615887    -0.71110
O2191       O  0.86075272  0.59746394  0.76883192    -0.70660
O2192       O  0.90944349  0.65456570  0.75202233    -0.61910
O2193       O  0.86149864  0.65374200  0.76941892    -0.74420
O2194       O  0.90861994  0.59863372  0.75152129    -0.73200
Cu2195     Cu  0.86227015  0.62676867  0.73698716     1.04560
Cu2196     Cu  0.88588898  0.62609704  0.76123393     1.04330
C2197       C  0.90500685  0.59009040  0.73749824     0.93100
C2198       C  0.84301886  0.66265824  0.76076756     0.92240
C2199       C  0.90623172  0.66384727  0.73810423     0.84390
C2200       C  0.84203536  0.58886804  0.76001019     0.90660
N2201       N  0.55312187  0.70563847  0.71507348    -0.27440
N2202       N  0.54010301  0.70422375  0.72859209    -0.35300
C2203       C  0.55311357  0.68878839  0.73872153     0.00900
C2204       C  0.57540357  0.67988507  0.73124790     0.06920
C2205       C  0.57498095  0.69105287  0.71626677    -0.06180
H2206       H  0.54572268  0.68276199  0.75021512     0.07590
H2207       H  0.58864143  0.68762334  0.70669605     0.08790
Cu2208     Cu  0.50178110  0.71602688  0.73132132     0.44170
Cu2209     Cu  0.53780407  0.72489471  0.69552153     0.41990
Cu2210     Cu  0.96529398  0.72830119  0.69631099     0.43880
N2211       N  0.96214485  0.70704207  0.72924547    -0.34830
N2212       N  0.94875946  0.70951701  0.71594840    -0.29080
C2213       C  0.92575454  0.69576002  0.71727631    -0.05180
C2214       C  0.92493644  0.68406363  0.73212152     0.07030
C2215       C  0.94820063  0.69182188  0.73937834     0.00830
H2216       H  0.91162296  0.69299232  0.70780916     0.08480
H2217       H  0.95563877  0.68480630  0.75058686     0.07560
N2218       N  0.98962089  0.74958085  0.68081763    -0.36280
N2219       N  0.51571404  0.74827889  0.68050160    -0.28460
C2220       C  0.52537856  0.76655394  0.67033852    -0.03700
C2221       C  0.50442126  0.78031177  0.66410926     0.04910
C2222       C  0.98207282  0.76872736  0.67085850     0.03010
H2223       H  0.54618656  0.76972461  0.66798064     0.08110
H2224       H  0.96186364  0.77478693  0.66930647     0.06950
N2225       N  0.54903172  0.54207949  0.71513739    -0.27440
N2226       N  0.53598669  0.54354230  0.72861323    -0.35300
C2227       C  0.55017670  0.55803215  0.73888821     0.00900
C2228       C  0.57325692  0.56633268  0.73154896     0.06920
C2229       C  0.57206901  0.55573302  0.71649930    -0.06180
H2230       H  0.54301967  0.56421392  0.75030118     0.07590
H2231       H  0.58594741  0.55922264  0.70694486     0.08790
Cu2232     Cu  0.49644656  0.53419634  0.73096060     0.44170
Cu2233     Cu  0.53211255  0.52471233  0.69530123     0.41990
Cu2234     Cu  0.95948682  0.52475226  0.69569298     0.43880
N2235       N  0.95794896  0.54569444  0.72856831    -0.34830
N2236       N  0.94454359  0.54406915  0.71521313    -0.29080
C2237       C  0.92271337  0.55867362  0.71646726    -0.05180
C2238       C  0.92269467  0.57003842  0.73132403     0.07030
C2239       C  0.94519577  0.56123562  0.73866153     0.00830
H2240       H  0.90879051  0.56197789  0.70700218     0.08480
H2241       H  0.95290787  0.56742960  0.75000158     0.07560
N2242       N  0.98197509  0.00314456  0.68005328    -0.36280
N2243       N  0.50815874  0.00349909  0.67975133    -0.28460
C2244       C  0.51630822  0.98525908  0.66947839    -0.03700
C2245       C  0.49428090  0.97288246  0.66305502     0.04910
C2246       C  0.97286165  0.98453118  0.67005530     0.03010
H2247       H  0.53671393  0.98005872  0.66769479     0.08110
H2248       H  0.95226192  0.97880100  0.66872351     0.06950
N2249       N  0.80198912  0.70743604  0.78308831    -0.27440
N2250       N  0.78896805  0.70570226  0.76959611    -0.35300
C2251       C  0.80238902  0.69074125  0.75951097     0.00900
C2252       C  0.82494463  0.68237558  0.76696129     0.06920
C2253       C  0.82425807  0.69342644  0.78191050    -0.06180
H2254       H  0.79505875  0.68451360  0.74808861     0.07590
H2255       H  0.83802665  0.69025886  0.79147386     0.08790
Cu2256     Cu  0.75013206  0.71577198  0.76680186     0.44170
Cu2257     Cu  0.78603893  0.72627342  0.80258022     0.41990
Cu2258     Cu  0.71332090  0.72588239  0.80160631     0.43880
N2259       N  0.71092478  0.70484578  0.76885661    -0.34830
N2260       N  0.69744145  0.70670620  0.78214518    -0.29080
C2261       C  0.67487952  0.69226346  0.78088391    -0.05180
C2262       C  0.67445727  0.68073064  0.76608288     0.07030
C2263       C  0.69749195  0.68928456  0.75877913     0.00830
H2264       H  0.66076136  0.68905676  0.79034439     0.08480
H2265       H  0.70508623  0.68276876  0.74753979     0.07560
N2266       N  0.73632409  0.74814477  0.81704872    -0.36280
N2267       N  0.76246445  0.74829976  0.81752161    -0.28460
C2268       C  0.77078770  0.76698581  0.82769987    -0.03700
C2269       C  0.74889062  0.77926881  0.83393253     0.04910
C2270       C  0.72741588  0.76672781  0.82682888     0.03010
H2271       H  0.79135341  0.77196435  0.82989712     0.08110
H2272       H  0.70684604  0.77181415  0.82777907     0.06950
N2273       N  0.80083755  0.54093857  0.78137001    -0.27440
N2274       N  0.78722047  0.54387263  0.76820422    -0.35300
C2275       C  0.80054265  0.56022449  0.75840966     0.00900
C2276       C  0.82364256  0.56821465  0.76577539     0.06920
C2277       C  0.82337884  0.55551086  0.78032049    -0.06180
H2278       H  0.79284400  0.56759349  0.74734891     0.07590
H2279       H  0.83762910  0.55791806  0.78975650     0.08790
Cu2280     Cu  0.74798241  0.53320171  0.76610942     0.44170
Cu2281     Cu  0.78503683  0.52001736  0.80037279     0.41990
Cu2282     Cu  0.71228935  0.52198411  0.80196725     0.43880
N2283       N  0.70925505  0.54346899  0.76907414    -0.34830
N2284       N  0.69633319  0.54148321  0.78261105    -0.29080
C2285       C  0.67406562  0.55552414  0.78151599    -0.05180
C2286       C  0.67328955  0.56687722  0.76657533     0.07030
C2287       C  0.69578853  0.55865873  0.75904505     0.00830
H2288       H  0.66033826  0.55846288  0.79111787     0.08480
H2289       H  0.70302768  0.56508393  0.74759155     0.07560
N2290       N  0.73539517  0.99798358  0.81615347    -0.36280
N2291       N  0.76144877  0.99694111  0.81527039    -0.28460
C2292       C  0.76973711  0.97728370  0.82459211    -0.03700
C2293       C  0.74796510  0.96510163  0.83171278     0.04910
C2294       C  0.72653114  0.97914685  0.82621126     0.03010
H2295       H  0.79015103  0.97159017  0.82558547     0.08110
H2296       H  0.70592483  0.97613870  0.82907713     0.06950
C2297       C  0.49941391  0.87671793  0.62491701    -0.02640
O2298       O  0.77821334  0.51474827  0.47956367    -0.73100
O2299       O  0.72224421  0.96565984  0.49734289    -0.74080
O2300       O  0.72190820  0.51330128  0.47967777    -0.62700
O2301       O  0.77828328  0.96707029  0.49727928    -0.71110
O2302       O  0.77832519  0.98921954  0.51983116    -0.70660
O2303       O  0.72201489  0.53544769  0.50223085    -0.61910
O2304       O  0.72200921  0.98778403  0.51989890    -0.74420
O2305       O  0.77807512  0.53683099  0.50213444    -0.73200
Cu2306     Cu  0.75016580  0.98937979  0.48769266     1.04560
Cu2307     Cu  0.75010902  0.51313648  0.51179685     1.04330
C2308       C  0.78691109  0.53365580  0.48813983     0.93100
C2309       C  0.71334471  0.96886477  0.51131671     0.92240
C2310       C  0.71313118  0.53177561  0.48827034     0.84390
C2311       C  0.78711140  0.97073270  0.51125623     0.90660
O2312       O  0.72121118  0.76266598  0.52010882    -0.73100
O2313       O  0.77811098  0.71672044  0.50320293    -0.74080
O2314       O  0.77753555  0.76411759  0.52079330    -0.62700
O2315       O  0.72203066  0.71532391  0.50247800    -0.71110
O2316       O  0.72261598  0.73784496  0.47990449    -0.70660
O2317       O  0.77800280  0.78658236  0.49819898    -0.61910
O2318       O  0.77895045  0.73929032  0.48064291    -0.74420
O2319       O  0.72201074  0.78517162  0.49752613    -0.73200
Cu2320     Cu  0.74969231  0.73887041  0.51242239     1.04560
Cu2321     Cu  0.75041724  0.76303903  0.48829430     1.04330
C2322       C  0.71271634  0.78128601  0.51140487     0.93100
C2323       C  0.78749119  0.72070004  0.48935467     0.92240
C2324       C  0.78646824  0.78316582  0.51226525     0.84390
C2325       C  0.71360173  0.71880655  0.48840202     0.90660
N2326       N  0.66884866  0.67682386  0.46541699    -0.27440
N2327       N  0.67021852  0.66349347  0.47883468    -0.35300
C2328       C  0.68510123  0.67714735  0.48917528     0.00900
C2329       C  0.69377521  0.70019367  0.48196604     0.06920
C2330       C  0.68299260  0.69952857  0.46690072    -0.06180
H2331       H  0.69107874  0.66972871  0.50060845     0.07590
H2332       H  0.68649174  0.71363933  0.45745554     0.08790
Cu2333     Cu  0.65967001  0.62430726  0.48118349     0.44170
Cu2334     Cu  0.65053843  0.66076729  0.44553512     0.41990
Cu2335     Cu  0.65019322  0.58825839  0.44583159     0.43880
N2336       N  0.66980332  0.58548299  0.47902693    -0.34830
N2337       N  0.66820989  0.57234130  0.46562870    -0.29080
C2338       C  0.68217854  0.55013384  0.46704125    -0.05180
C2339       C  0.69311807  0.54958802  0.48205032     0.07030
C2340       C  0.68470209  0.57218283  0.48930916     0.00830
H2341       H  0.68557327  0.53641417  0.45755318     0.08480
H2342       H  0.69096455  0.57965592  0.50068686     0.07560
N2343       N  0.62927636  0.61103803  0.42987502    -0.36280
N2344       N  0.62942184  0.63714108  0.42967093    -0.28460
C2345       C  0.61149586  0.64527461  0.41906318    -0.03700
C2346       C  0.59955863  0.62329964  0.41223152     0.04910
C2347       C  0.61123163  0.60198130  0.41946778     0.03010
H2348       H  0.60624168  0.66562593  0.41724122     0.08110
H2349       H  0.60597357  0.58137166  0.41790393     0.06950
N2350       N  0.83385469  0.68135114  0.46727652    -0.27440
N2351       N  0.83127979  0.66738768  0.48041947    -0.35300
C2352       C  0.81569819  0.68010924  0.49052573     0.00900
C2353       C  0.80784317  0.70315511  0.48338777     0.06920
C2354       C  0.81983001  0.70349012  0.46865904    -0.06180
H2355       H  0.80859580  0.67196191  0.50162332     0.07590
H2356       H  0.81711948  0.71777505  0.45929147     0.08790
Cu2357     Cu  0.84104046  0.62836406  0.48214216     0.44170
Cu2358     Cu  0.85299788  0.66653637  0.44769001     0.41990
Cu2359     Cu  0.84955094  0.59412219  0.44579023     0.43880
N2360       N  0.83033983  0.58938393  0.47917601    -0.34830
N2361       N  0.83147704  0.57690302  0.46554334    -0.29080
C2362       C  0.81735341  0.55411215  0.46677324    -0.05180
C2363       C  0.80679520  0.55252266  0.48189070     0.07030
C2364       C  0.81559555  0.57510748  0.48939256     0.00830
H2365       H  0.81367447  0.54061034  0.45713392     0.08480
H2366       H  0.80979053  0.58182483  0.50097087     0.07560
N2367       N  0.87172977  0.61817305  0.43048148    -0.36280
N2368       N  0.87350662  0.64419714  0.43151360    -0.28460
C2369       C  0.89238393  0.65323336  0.42155013    -0.03700
C2370       C  0.90267139  0.63199983  0.41369887     0.04910
C2371       C  0.88921472  0.61008772  0.41964729     0.03010
H2372       H  0.89900452  0.67361301  0.42064781     0.08110
H2373       H  0.89316748  0.58967233  0.41710596     0.06950
N2374       N  0.66810831  0.92613523  0.53377015    -0.27440
N2375       N  0.67000083  0.91310775  0.52036810    -0.35300
C2376       C  0.68513721  0.92707722  0.51020462     0.00900
C2377       C  0.69341290  0.95002314  0.51752619     0.06920
C2378       C  0.68214477  0.94896053  0.53246797    -0.06180
H2379       H  0.69153395  0.91995356  0.49883213     0.07590
H2380       H  0.68522058  0.96288698  0.54195852     0.08790
Cu2381     Cu  0.65958808  0.87394507  0.51794280     0.44170
Cu2382     Cu  0.64909187  0.90947994  0.55332017     0.41990
Cu2383     Cu  0.64821664  0.83683738  0.55310388     0.43880
N2384       N  0.66939603  0.83500679  0.52021869    -0.34830
N2385       N  0.66715481  0.82149364  0.53355286    -0.29080
C2386       C  0.68103855  0.79923526  0.53226930    -0.05180
C2387       C  0.69258024  0.79904164  0.51741206     0.07030
C2388       C  0.68461883  0.82189348  0.51010722     0.00830
H2389       H  0.68392161  0.78520312  0.54175306     0.08480
H2390       H  0.69138424  0.82963816  0.49883708     0.07560
N2391       N  0.62614129  0.85954746  0.56836311    -0.36280
N2392       N  0.62655570  0.88564553  0.56849656    -0.28460
C2393       C  0.60799778  0.89385409  0.57860469    -0.03700
C2394       C  0.59500094  0.87196792  0.58500134     0.04910
C2395       C  0.60726569  0.85055108  0.57834445     0.03010
H2396       H  0.60327052  0.91429992  0.58046530     0.08110
H2397       H  0.60240064  0.82990406  0.58021475     0.06950
N2398       N  0.83204305  0.93037005  0.53403066    -0.27440
N2399       N  0.83013179  0.91689446  0.52076422    -0.35300
C2400       C  0.81517470  0.93004581  0.51044164     0.00900
C2401       C  0.80704681  0.95289076  0.51753716     0.06920
C2402       C  0.81820829  0.95264010  0.53249319    -0.06180
H2403       H  0.80869964  0.92234120  0.49916092     0.07590
H2404       H  0.81510689  0.96665508  0.54186355     0.08790
Cu2405     Cu  0.84005498  0.87796694  0.51887123     0.44170
Cu2406     Cu  0.85049826  0.91492450  0.55381899     0.41990
Cu2407     Cu  0.84941105  0.84230783  0.55465405     0.43880
N2408       N  0.82958462  0.83880258  0.52148862    -0.34830
N2409       N  0.83100029  0.82574281  0.53499536    -0.29080
C2410       C  0.81697382  0.80293569  0.53367618    -0.05180
C2411       C  0.80621561  0.80193004  0.51861408     0.07030
C2412       C  0.81478199  0.82487748  0.51124529     0.00830
H2413       H  0.81355428  0.78898696  0.54321613     0.08480
H2414       H  0.80879044  0.83203888  0.49975562     0.07560
N2415       N  0.87164077  0.86610611  0.56983651    -0.36280
N2416       N  0.87212670  0.89222776  0.56946712    -0.28460
C2417       C  0.89117455  0.90122348  0.57926208    -0.03700
C2418       C  0.90312902  0.87980159  0.58612092     0.04910
C2419       C  0.89033003  0.85788372  0.57991540     0.03010
H2420       H  0.89705011  0.92174483  0.58048962     0.08110
H2421       H  0.89545920  0.83750012  0.58173738     0.06950
O2422       O  0.88963488  0.90320208  0.27039094    -0.73100
O2423       O  0.84068842  0.84726472  0.25269073    -0.74080
O2424       O  0.88835492  0.84685414  0.27026263    -0.62700
O2425       O  0.84187933  0.90318571  0.25283389    -0.71110
O2426       O  0.86419934  0.90368966  0.23023433    -0.70660
O2427       O  0.91067254  0.84737173  0.24766359    -0.61910
O2428       O  0.86302927  0.84753456  0.23009995    -0.74420
O2429       O  0.91186849  0.90330924  0.24776702    -0.73200
Cu2430     Cu  0.86432980  0.87511900  0.26232978     1.04560
Cu2431     Cu  0.88826926  0.87549427  0.23817461     1.04330
C2432       C  0.90854448  0.91208045  0.26173130     0.93100
C2433       C  0.84405589  0.83864087  0.23869039     0.92240
C2434       C  0.90686653  0.83818558  0.26158982     0.84390
C2435       C  0.84558150  0.91223953  0.23886919     0.90660
O2436       O  0.63737073  0.84552419  0.23009962    -0.73100
O2437       O  0.59109572  0.90159476  0.24764831    -0.74080
O2438       O  0.63856725  0.90167960  0.22982666    -0.62700
O2439       O  0.58989526  0.84564740  0.24792621    -0.71110
O2440       O  0.61234235  0.84558220  0.27045744    -0.70660
O2441       O  0.66107740  0.90161719  0.25233730    -0.61910
O2442       O  0.61361802  0.90182546  0.27015593    -0.74420
O2443       O  0.65987056  0.84569997  0.25261558    -0.73200
Cu2444     Cu  0.61339238  0.87360013  0.23810961     1.04560
Cu2445     Cu  0.63755253  0.87367766  0.26216564     1.04330
C2446       C  0.65606872  0.83686092  0.23867304     0.93100
C2447       C  0.59499390  0.91056335  0.26155142     0.92240
C2448       C  0.65762299  0.91043279  0.23833079     0.84390
C2449       C  0.59331759  0.83681337  0.26193124     0.90660
N2450       N  0.95077733  0.95810801  0.28367492    -0.27440
N2451       N  0.96402841  0.95589481  0.27032005    -0.35300
C2452       C  0.95026769  0.94040794  0.26036751     0.00900
C2453       C  0.92723165  0.93217965  0.26777971     0.06920
C2454       C  0.92800761  0.94387765  0.28255850    -0.06180
H2455       H  0.95762886  0.93372665  0.24910774     0.07590
H2456       H  0.91392798  0.94099947  0.29207150     0.08790
Cu2457     Cu  0.50336009  0.96602819  0.26785197     0.44170
Cu2458     Cu  0.96729782  0.97778938  0.30291328     0.41990
Cu2459     Cu  0.54015553  0.97637892  0.30306073     0.43880
N2460       N  0.54195568  0.95492196  0.27030983    -0.34830
N2461       N  0.55532303  0.95675576  0.28367013    -0.29080
C2462       C  0.57725444  0.94226450  0.28246755    -0.05180
C2463       C  0.57735588  0.93075268  0.26764165     0.07030
C2464       C  0.55480345  0.93935862  0.26027749     0.00830
H2465       H  0.59117594  0.93910600  0.29195225     0.08480
H2466       H  0.54709867  0.93297061  0.24897377     0.07560
N2467       N  0.51768469  0.49941606  0.31800403    -0.36280
N2468       N  0.99154421  0.50001622  0.31789171    -0.28460
C2469       C  0.98367940  0.51863225  0.32800094    -0.03700
C2470       C  0.50583112  0.53059708  0.33469146     0.04910
C2471       C  0.52704181  0.51760006  0.32820558     0.03010
H2472       H  0.96329391  0.52380829  0.32989790     0.08110
H2473       H  0.54779874  0.52091678  0.33059813     0.06950
N2474       N  0.80180140  0.79390636  0.21596645    -0.27440
N2475       N  0.78855838  0.79524909  0.22937851    -0.35300
C2476       C  0.80234161  0.81010731  0.23966926     0.00900
C2477       C  0.82538061  0.81875700  0.23241448     0.06920
C2478       C  0.82457215  0.80800259  0.21739081    -0.06180
H2479       H  0.79500388  0.81609689  0.25107869     0.07590
H2480       H  0.83859630  0.81153162  0.20791712     0.08790
Cu2481     Cu  0.74930485  0.78456257  0.23166022     0.44170
Cu2482     Cu  0.78549319  0.77579710  0.19615577     0.41990
Cu2483     Cu  0.71276613  0.77459283  0.19623720     0.43880
N2484       N  0.71023712  0.79421611  0.22941253    -0.34830
N2485       N  0.69691786  0.79250986  0.21602819    -0.29080
C2486       C  0.67451366  0.80621318  0.21744886    -0.05180
C2487       C  0.67402426  0.81707178  0.23244526     0.07030
C2488       C  0.69686022  0.80889387  0.23968183     0.00830
H2489       H  0.66059290  0.80947187  0.20797652     0.08480
H2490       H  0.70442775  0.81517685  0.25103881     0.07560
N2491       N  0.73589413  0.75385933  0.18044924    -0.36280
N2492       N  0.76206149  0.75443205  0.18036094    -0.28460
C2493       C  0.77059727  0.73659013  0.16994810    -0.03700
C2494       C  0.74883711  0.72406936  0.16314141     0.04910
C2495       C  0.72718791  0.73557623  0.17012622     0.03010
H2496       H  0.79113629  0.73173677  0.16836909     0.08110
H2497       H  0.70658682  0.73017644  0.16841729     0.06950
N2498       N  0.94609462  0.79100250  0.28352861    -0.27440
N2499       N  0.95982530  0.79355003  0.27031886    -0.35300
C2500       C  0.94720959  0.80958743  0.26034781     0.00900
C2501       C  0.92444563  0.81778700  0.26761916     0.06920
C2502       C  0.92417950  0.80552995  0.28231323    -0.06180
H2503       H  0.95521137  0.81658076  0.24919117     0.07590
H2504       H  0.91001851  0.80820252  0.29171951     0.08790
Cu2505     Cu  0.49856958  0.78276881  0.26824764     0.44170
Cu2506     Cu  0.96101157  0.77063872  0.30280948     0.41990
Cu2507     Cu  0.53383558  0.77276157  0.30415316     0.43880
N2508       N  0.53776872  0.79315946  0.27098496    -0.34830
N2509       N  0.55065445  0.79160027  0.28451656    -0.29080
C2510       C  0.57344260  0.80579519  0.28325474    -0.05180
C2511       C  0.57459505  0.81681582  0.26821553     0.07030
C2512       C  0.55176787  0.80821622  0.26079988     0.00830
H2513       H  0.58725491  0.80916123  0.29282354     0.08480
H2514       H  0.54468968  0.81436995  0.24932555     0.07560
N2515       N  0.50980166  0.75006988  0.31922737    -0.36280
N2516       N  0.98365074  0.74878531  0.31841133    -0.28460
C2517       C  0.97460634  0.72980303  0.32831969    -0.03700
C2518       C  0.49597385  0.71892281  0.33589297     0.04910
C2519       C  0.51796446  0.73215192  0.32984772     0.03010
H2520       H  0.95405962  0.72374893  0.32951595     0.08110
H2521       H  0.53844061  0.72802006  0.33232585     0.06950
N2522       N  0.80501584  0.95739435  0.21636138    -0.27440
N2523       N  0.79143857  0.95510327  0.22964364    -0.35300
C2524       C  0.80464146  0.94000743  0.23986965     0.00900
C2525       C  0.82762914  0.93217210  0.23269133     0.06920
C2526       C  0.82740476  0.94365875  0.21778670    -0.06180
H2527       H  0.79687845  0.93324095  0.25113324     0.07590
H2528       H  0.84151701  0.94084422  0.20837105     0.08790
Cu2529     Cu  0.75232054  0.96469868  0.23161658     0.44170
Cu2530     Cu  0.78944153  0.97612631  0.19669326     0.41990
Cu2531     Cu  0.71666466  0.97399933  0.19577469     0.43880
N2532       N  0.71314407  0.95399397  0.22903702    -0.34830
N2533       N  0.70012020  0.95543912  0.21554834    -0.29080
C2534       C  0.67734671  0.94127193  0.21692103    -0.05180
C2535       C  0.67632811  0.93037795  0.23198788     0.07030
C2536       C  0.69923150  0.93901791  0.23931141     0.00830
H2537       H  0.66345241  0.93782933  0.20740339     0.08480
H2538       H  0.70639481  0.93297217  0.25078704     0.07560
N2539       N  0.74040857  0.49621600  0.18034597    -0.36280
N2540       N  0.76658300  0.49724939  0.18087008    -0.28460
C2541       C  0.77548439  0.51618801  0.17089750    -0.03700
C2542       C  0.75398735  0.52735017  0.16363342     0.04910
C2543       C  0.73207710  0.51435655  0.16991862     0.03010
H2544       H  0.79598498  0.52241575  0.16971617     0.08110
H2545       H  0.71158597  0.51902011  0.16790319     0.06950
C2546       C  0.49960657  0.62370538  0.37609531    -0.02640
O2547       O  0.52862527  0.73680841  0.02163111    -0.73100
O2548       O  0.97254738  0.78382643  0.00455731    -0.74080
O2549       O  0.97225987  0.73570546  0.02176997    -0.62700
O2550       O  0.52858361  0.78480583  0.00436558    -0.71110
O2551       O  0.52842747  0.76314704  0.98163937    -0.70660
O2552       O  0.97221320  0.71417044  0.99900423    -0.61910
O2553       O  0.97205465  0.76226523  0.98180164    -0.74420
O2554       O  0.52828659  0.71516289  0.99890363    -0.73200
Cu2555     Cu  0.50050286  0.76107840  0.01386257     1.04560
Cu2556     Cu  0.50022821  0.73789097  0.98955504     1.04330
C2557       C  0.53732385  0.71853081  0.01286410     0.93100
C2558       C  0.96349655  0.78059058  0.99059810     0.92240
C2559       C  0.96341206  0.71708414  0.01301933     0.84390
C2560       C  0.53737298  0.78175575  0.99035231     0.90660
O2561       O  0.97410930  0.98650594  0.98112850    -0.73100
O2562       O  0.53089182  0.53514304  0.99806587    -0.74080
O2563       O  0.53057215  0.98737447  0.98079332    -0.62700
O2564       O  0.97476031  0.53419721  0.99843091    -0.71110
O2565       O  0.97480485  0.51204638  0.02113202    -0.70660
O2566       O  0.53058050  0.96541776  0.00356074    -0.61910
O2567       O  0.53120228  0.51310328  0.02080504    -0.74420
O2568       O  0.97455630  0.96444818  0.00385948    -0.73200
Cu2569     Cu  0.50258522  0.51162339  0.98881819     1.04560
Cu2570     Cu  0.50280562  0.98795373  0.01311476     1.04330
C2571       C  0.96537845  0.96774463  0.98994473     0.93100
C2572       C  0.53995967  0.53188010  0.01201061     0.92240
C2573       C  0.53933892  0.96890520  0.98952514     0.84390
C2574       C  0.96594078  0.53050813  0.01244504     0.90660
N2575       N  0.91915881  0.56964365  0.03457005    -0.27440
N2576       N  0.92143014  0.58337167  0.02131382    -0.35300
C2577       C  0.93732479  0.57083635  0.01129807     0.00900
C2578       C  0.94572234  0.54812498  0.01857051     0.06920
C2579       C  0.93373551  0.54781059  0.03332197    -0.06180
H2580       H  0.94402527  0.57881416  0.00007130     0.07590
H2581       H  0.93655202  0.53360519  0.04272002     0.08790
Cu2582     Cu  0.91031496  0.62192079  0.01902654     0.44170
Cu2583     Cu  0.89880961  0.58416552  0.05393089     0.41990
Cu2584     Cu  0.89965048  0.65670513  0.05465139     0.43880
N2585       N  0.92014931  0.66116270  0.02165887    -0.34830
N2586       N  0.91831169  0.67387849  0.03517136    -0.29080
C2587       C  0.93225408  0.69677385  0.03402636    -0.05180
C2588       C  0.94341113  0.69820465  0.01906999     0.07030
C2589       C  0.93515361  0.67541687  0.01157186     0.00830
H2590       H  0.93541379  0.71044793  0.04363863     0.08480
H2591       H  0.94158870  0.66853031  0.00015287     0.07560
N2592       N  0.87696833  0.63269891  0.06961109    -0.36280
N2593       N  0.87631870  0.60658287  0.06924676    -0.28460
C2594       C  0.85709659  0.59756753  0.07901687    -0.03700
C2595       C  0.84522908  0.61900494  0.08582109     0.04910
C2596       C  0.85829862  0.64090313  0.07965374     0.03010
H2597       H  0.85129023  0.57703577  0.08042906     0.08110
H2598       H  0.85353674  0.66131821  0.08159195     0.06950
N2599       N  0.58478648  0.92808737  0.96751935    -0.27440
N2600       N  0.58247895  0.91486275  0.98095057    -0.35300
C2601       C  0.56721390  0.92817229  0.99093750     0.00900
C2602       C  0.55923995  0.95087253  0.98346647     0.06920
C2603       C  0.57084452  0.95037138  0.96861513    -0.06180
H2604       H  0.56049626  0.92068750  0.00227858     0.07590
H2605       H  0.56808498  0.96427636  0.95905010     0.08790
Cu2606     Cu  0.59229503  0.87598669  0.98354784     0.44170
Cu2607     Cu  0.60420189  0.91217533  0.94824358     0.41990
Cu2608     Cu  0.60267528  0.83957075  0.94838355     0.43880
N2609       N  0.58147569  0.83689910  0.98130762    -0.34830
N2610       N  0.58335832  0.82364037  0.96798623    -0.29080
C2611       C  0.56901871  0.80103216  0.96933225    -0.05180
C2612       C  0.55755532  0.80033921  0.98421200     0.07030
C2613       C  0.56602664  0.82326874  0.99147115     0.00830
H2614       H  0.56588991  0.78700831  0.95989833     0.08480
H2615       H  0.55956382  0.83063072  0.00277330     0.07560
N2616       N  0.62548712  0.86282489  0.93311105    -0.36280
N2617       N  0.62619287  0.88891465  0.93315259    -0.28460
C2618       C  0.64514470  0.89754228  0.92312641    -0.03700
C2619       C  0.65694088  0.87591464  0.91633976     0.04910
C2620       C  0.64390533  0.85425687  0.92301527     0.03010
H2621       H  0.65090955  0.91806533  0.92169186     0.08110
H2622       H  0.64812607  0.83370168  0.92113093     0.06950
N2623       N  0.58565389  0.57402263  0.03410189    -0.27440
N2624       N  0.58342735  0.58745026  0.02077459    -0.35300
C2625       C  0.56819049  0.57367975  0.01066874     0.00900
C2626       C  0.56017233  0.55048742  0.01798081     0.06920
C2627       C  0.57172796  0.55117255  0.03282568    -0.06180
H2628       H  0.56137908  0.58116700  0.99942490     0.07590
H2629       H  0.56876728  0.53704775  0.04232300     0.08790
Cu2630     Cu  0.59293111  0.62691158  0.01863723     0.44170
Cu2631     Cu  0.60426536  0.59029555  0.05373391     0.41990
Cu2632     Cu  0.60277087  0.66265452  0.05439127     0.43880
N2633       N  0.58176875  0.66533133  0.02138420    -0.34830
N2634       N  0.58352142  0.67826306  0.03485849    -0.29080
C2635       C  0.56900405  0.70016608  0.03374191    -0.05180
C2636       C  0.55755539  0.70072706  0.01886198     0.07030
C2637       C  0.56623125  0.67846294  0.01136643     0.00830
H2638       H  0.56573995  0.71373647  0.04332482     0.08480
H2639       H  0.55989432  0.67113081  0.99997055     0.07560
N2640       N  0.62429423  0.63984664  0.07011476    -0.36280
N2641       N  0.62483269  0.61377931  0.06981344    -0.28460
C2642       C  0.64257436  0.60547457  0.08045001    -0.03700
C2643       C  0.65361069  0.62725477  0.08796583     0.04910
C2644       C  0.64167531  0.64871644  0.08099052     0.03010
H2645       H  0.64809121  0.58513398  0.08198325     0.08110
H2646       H  0.64609666  0.66933315  0.08319117     0.06950
N2647       N  0.91829019  0.92605849  0.96846827    -0.27440
N2648       N  0.92085183  0.91272689  0.98181160    -0.35300
C2649       C  0.93681223  0.92627551  0.99161412     0.00900
C2650       C  0.94496873  0.94922994  0.98411035     0.06920
C2651       C  0.93275476  0.94864707  0.96944547    -0.06180
H2652       H  0.94379286  0.91884265  0.00283307     0.07590
H2653       H  0.93539067  0.96275684  0.95991015     0.08790
Cu2654     Cu  0.91029677  0.87362080  0.98456508     0.44170
Cu2655     Cu  0.89774893  0.91018357  0.94936166     0.41990
Cu2656     Cu  0.89739910  0.83748222  0.94984121     0.43880
N2657       N  0.92024781  0.83478438  0.98221163    -0.34830
N2658       N  0.91750210  0.82155810  0.96890632    -0.29080
C2659       C  0.93143711  0.79925863  0.96997215    -0.05180
C2660       C  0.94350372  0.79873408  0.98468038     0.07030
C2661       C  0.93582058  0.82145623  0.99210145     0.00830
H2662       H  0.93383452  0.78533470  0.96047256     0.08480
H2663       H  0.94289291  0.82891325  0.00331657     0.07560
N2664       N  0.87440847  0.86031737  0.93497014    -0.36280
N2665       N  0.87452702  0.88640461  0.93470320    -0.28460
C2666       C  0.85565587  0.89446018  0.92469093    -0.03700
C2667       C  0.84300132  0.87244994  0.91831035     0.04910
C2668       C  0.85544704  0.85118151  0.92519581     0.03010
H2669       H  0.85103619  0.91489007  0.92255122     0.08110
H2670       H  0.85025969  0.83051465  0.92395175     0.06950
C2671       C  0.75098150  0.62560934  0.12639940    -0.02640
C2672       C  0.75137189  0.87330734  0.87502974    -0.02640
C2673       C  0.80160302  0.89242656  0.90813672    -0.26470
C2674       C  0.81973186  0.87193061  0.90757324    -0.14540
C2675       C  0.81505032  0.85110302  0.89696442     0.36090
C2676       C  0.79277789  0.85120388  0.88715679    -0.25920
C2677       C  0.77533465  0.87264415  0.88668745    -0.15160
C2678       C  0.77954462  0.89288240  0.89806529     0.37170
N2679       N  0.76172192  0.91434879  0.89924685    -0.89410
H2680       H  0.80439881  0.90827531  0.91653126     0.18290
H2681       H  0.78951833  0.83391145  0.88002655     0.18280
N2682       N  0.83320345  0.82994578  0.89571707    -0.88440
H2683       H  0.77242869  0.93201870  0.89764100     0.35660
H2684       H  0.75392633  0.91429507  0.91068830     0.40750
H2685       H  0.84005831  0.82938224  0.88407005     0.40370
H2686       H  0.82288897  0.81226140  0.89805813     0.35260
C2687       C  0.69674614  0.64652980  0.09642581    -0.26470
C2688       C  0.67655324  0.62761275  0.09888480    -0.14540
C2689       C  0.67946780  0.60884984  0.11115049     0.36090
C2690       C  0.70334046  0.60807639  0.11953569    -0.25920
C2691       C  0.72467033  0.62602822  0.11654694    -0.15160
C2692       C  0.72028276  0.64623462  0.10516793     0.37170
N2693       N  0.73999208  0.66635924  0.10216332    -0.89410
H2694       H  0.69461708  0.66141495  0.08730957     0.18290
H2695       H  0.70415877  0.59397261  0.12910663     0.18280
N2696       N  0.65846247  0.59086854  0.11589966    -0.88440
H2697       H  0.74512713  0.66574445  0.09020671     0.35660
H2698       H  0.73163369  0.68464481  0.10436163     0.40750
H2699       H  0.64069380  0.59526457  0.11036780     0.40370
H2700       H  0.65489427  0.59393412  0.12791309     0.35260
C2701       C  0.69818904  0.85500883  0.90690141    -0.26470
C2702       C  0.68043973  0.87577050  0.90576530    -0.14540
C2703       C  0.68586435  0.89638827  0.89494161     0.36090
C2704       C  0.70895075  0.89594457  0.88573497    -0.25920
C2705       C  0.72631762  0.87436531  0.88600776    -0.15160
C2706       C  0.72088485  0.85418184  0.89738530     0.37170
N2707       N  0.73829471  0.83247918  0.89923609    -0.89410
H2708       H  0.69470089  0.83930519  0.91542280     0.18290
H2709       H  0.71319683  0.91316588  0.87860068     0.18280
N2710       N  0.66776220  0.91765654  0.89311045    -0.88440
H2711       H  0.74508903  0.83235518  0.91089763     0.35660
H2712       H  0.72745221  0.81498735  0.89736804     0.40750
H2713       H  0.65008564  0.90967751  0.88863210     0.40370
H2714       H  0.67469811  0.93137753  0.88473691     0.35260
C2715       C  0.82411053  0.62313788  0.11187416    -0.26470
C2716       C  0.82123347  0.61899573  0.09568915    -0.14540
C2717       C  0.79561756  0.61564000  0.08928922     0.36090
C2718       C  0.77355854  0.61733475  0.09923411    -0.25920
C2719       C  0.77592432  0.62344999  0.11549100    -0.15160
C2720       C  0.80203177  0.62477350  0.12181366     0.37170
N2721       N  0.80639017  0.62811696  0.13838193    -0.89250
H2722       H  0.84376115  0.62513263  0.11689475     0.18290
H2723       H  0.75447722  0.61342940  0.09393275     0.18280
N2724       N  0.79104221  0.61050265  0.07280565    -0.88440
H2725       H  0.81803131  0.64517036  0.14003143     0.35660
H2726       H  0.81708088  0.61206020  0.14248972     0.40750
H2727       H  0.80861798  0.60963075  0.06641339     0.40370
H2728       H  0.78067992  0.62639158  0.06817734     0.35260
C2729       C  0.75827967  0.57573404  0.16183919    -0.26470
C2730       C  0.75409899  0.55174125  0.15411541    -0.14540
C2731       C  0.75054584  0.55161145  0.13761858     0.36090
C2732       C  0.75035308  0.57564126  0.12940270    -0.25920
C2733       C  0.75249354  0.60037109  0.13709976    -0.15160
C2734       C  0.75800736  0.59988119  0.15365388     0.37170
N2735       N  0.76485877  0.62323698  0.16229239    -0.89410
H2736       H  0.76204052  0.57574180  0.17444992     0.18290
H2737       H  0.74758826  0.57502101  0.11671805     0.18280
N2738       N  0.74695609  0.52765626  0.12877852    -0.88440
H2739       H  0.78371678  0.62099906  0.16709536     0.35660
H2740       H  0.75166284  0.62480745  0.17173141     0.40750
H2741       H  0.74735739  0.01097062  0.13603010     0.40370
H2742       H  0.76295059  0.52629989  0.12102024     0.35260
C2743       C  0.98687136  0.67136280  0.34019577    -0.26470
C2744       C  0.49572771  0.69551949  0.34633063    -0.14540
C2745       C  0.50418337  0.69669766  0.36217157     0.36090
C2746       C  0.50426728  0.67353571  0.37123507    -0.25920
C2747       C  0.49802880  0.64837950  0.36484018    -0.15160
C2748       C  0.98752355  0.64799932  0.34918196     0.37170
N2749       N  0.97636140  0.62449657  0.34237221    -0.89410
H2750       H  0.97941286  0.67055789  0.32819870     0.18290
H2751       H  0.51035890  0.67522552  0.38342022     0.18280
N2752       N  0.51217217  0.72098544  0.36965761    -0.88440
H2753       H  0.98649327  0.62072105  0.33188358     0.35660
H2754       H  0.95665312  0.62798835  0.33947126     0.40750
H2755       H  0.51022919  0.73722906  0.36217341     0.40370
H2756       H  0.53224411  0.71972611  0.37242895     0.35260
C2757       C  0.72900788  0.68092940  0.15490310    -0.26470
C2758       C  0.74881774  0.70037947  0.15290673    -0.14540
C2759       C  0.76861271  0.69659731  0.14149090     0.36090
C2760       C  0.76902864  0.67284255  0.13301866    -0.25920
C2761       C  0.75044380  0.65202527  0.13583425    -0.15160
C2762       C  0.72942875  0.65719093  0.14650953     0.37170
N2763       N  0.70862579  0.63806291  0.14919803    -0.89410
H2764       H  0.71335173  0.68371999  0.16342370     0.18290
H2765       H  0.78368473  0.67130665  0.12383965     0.18280
N2766       N  0.78793051  0.71714571  0.13824599    -0.88440
H2767       H  0.69071138  0.64667877  0.14620323     0.35660
H2768       H  0.70799669  0.63346231  0.16124469     0.40750
H2769       H  0.77792268  0.73322053  0.13356467     0.40370
H2770       H  0.80128629  0.71125809  0.12959367     0.35260
C2771       C  0.98689378  0.55262801  0.35797504    -0.26470
C2772       C  0.50588494  0.55291036  0.34598872    -0.14540
C2773       C  0.52323351  0.57492940  0.34468863     0.36090
C2774       C  0.52061335  0.59612890  0.35498173    -0.25920
C2775       C  0.50058760  0.59707567  0.36669769    -0.15160
C2776       C  0.98438786  0.57346084  0.36866374     0.37170
N2777       N  0.96634957  0.56800391  0.38146530    -0.89410
H2778       H  0.97406893  0.53535512  0.35939230     0.18290
H2779       H  0.53384039  0.61294301  0.35319283     0.18280
N2780       N  0.54277918  0.57728561  0.33249265    -0.88440
H2781       H  0.94699846  0.56839648  0.37716314     0.35660
H2782       H  0.96827699  0.58023347  0.39113508     0.40750
H2783       H  0.53368623  0.57419968  0.32155140     0.40370
H2784       H  0.55711823  0.56315395  0.33435953     0.35260
C2785       C  0.95062581  0.64013533  0.41029254    -0.26470
C2786       C  0.92649310  0.63201262  0.40366918    -0.14540
C2787       C  0.92583565  0.62358943  0.38784048     0.36090
C2788       C  0.94953956  0.62234505  0.37936684    -0.25920
C2789       C  0.97451305  0.62718227  0.38646471    -0.15160
C2790       C  0.97445741  0.63832537  0.40189251     0.37170
N2791       N  0.49799703  0.64906605  0.40897344    -0.89410
H2792       H  0.95105184  0.64777944  0.42222659     0.18290
H2793       H  0.94841533  0.61587564  0.36725861     0.18280
N2794       N  0.90162587  0.61653940  0.37985069    -0.88440
H2795       H  0.50079929  0.63961571  0.41983276     0.35660
H2796       H  0.49504410  0.66903071  0.41122878     0.40750
H2797       H  0.88506336  0.61928014  0.38694919     0.40370
H2798       H  0.90217336  0.59642920  0.37726744     0.35260
C2799       C  0.54874707  0.63871748  0.38048407    -0.26470
C2800       C  0.52633176  0.62360326  0.38559843    -0.14540
C2801       C  0.53045909  0.60579706  0.39835745     0.36090
C2802       C  0.55456976  0.60588312  0.40652004    -0.25920
C2803       C  0.57564464  0.62267393  0.40213016    -0.15160
C2804       C  0.57300075  0.63863500  0.38852125     0.37170
N2805       N  0.59455783  0.65434522  0.38212459    -0.89410
H2806       H  0.54816073  0.65021536  0.36971768     0.18290
H2807       H  0.55655971  0.59294313  0.41666491     0.18280
N2808       N  0.01010567  0.58771008  0.40339625    -0.88440
H2809       H  0.59799724  0.64780979  0.37062691     0.35660
H2810       H  0.61214076  0.65130300  0.38820456     0.40750
H2811       H  0.01725573  0.56860387  0.40243881     0.40370
H2812       H  0.00602288  0.59116182  0.41530544     0.35260
C2813       C  0.57034903  0.89156091  0.60718918    -0.26470
C2814       C  0.57162424  0.87211889  0.59560164    -0.14540
C2815       C  0.55058882  0.85364443  0.59422728     0.36090
C2816       C  0.52850705  0.85561805  0.60416019    -0.25920
C2817       C  0.52590477  0.87621276  0.61523142    -0.15160
C2818       C  0.54854570  0.89334733  0.61741935     0.37170
N2819       N  0.55039903  0.91185094  0.63019796    -0.89410
H2820       H  0.58707217  0.90505210  0.60863379     0.18290
H2821       H  0.51243967  0.84144144  0.60273766     0.18280
N2822       N  0.55113883  0.83345947  0.58238936    -0.88440
H2823       H  0.56710934  0.92421889  0.62906303     0.35660
H2824       H  0.55295775  0.90125606  0.64065349     0.40750
H2825       H  0.55057974  0.84278513  0.57135121     0.40370
H2826       H  0.53424167  0.82125854  0.58308130     0.35260
C2827       C  0.97554652  0.88200469  0.59780833    -0.26470
C2828       C  0.97413860  0.87797158  0.61434990    -0.14540
C2829       C  0.94844734  0.87665971  0.62129763     0.36090
C2830       C  0.92577030  0.87737822  0.61181065    -0.25920
C2831       C  0.92767993  0.88005538  0.59543959    -0.15160
C2832       C  0.95287110  0.88282698  0.58834142     0.37170
N2833       N  0.95639413  0.88617092  0.57157599    -0.89410
H2834       H  0.99427556  0.88526449  0.59193022     0.18290
H2835       H  0.90644805  0.87565226  0.61731483     0.18280
N2836       N  0.94522567  0.87370148  0.63802913    -0.88440
H2837       H  0.96502541  0.90483625  0.56966062     0.35660
H2838       H  0.93847099  0.88579479  0.56549914     0.40750
H2839       H  0.93416462  0.85641397  0.64023104     0.40370
H2840       H  0.93439472  0.88959719  0.64212486     0.35260
C2841       C  0.77097958  0.93834854  0.85188661    -0.26470
C2842       C  0.74854398  0.94169374  0.84242593    -0.14540
C2843       C  0.72884619  0.92145738  0.84249014     0.36090
C2844       C  0.73134322  0.89973389  0.85256075    -0.25920
C2845       C  0.75260690  0.89735522  0.86330129    -0.15160
C2846       C  0.77377780  0.91627798  0.86177175     0.37170
N2847       N  0.79897117  0.91272319  0.86908789    -0.89410
H2848       H  0.78702329  0.95283638  0.85143215     0.18290
H2849       H  0.71564178  0.88484677  0.85250490     0.18280
N2850       N  0.70637314  0.92169650  0.83223458    -0.88440
H2851       H  0.80351402  0.92942877  0.87582390     0.35660
H2852       H  0.81325686  0.91161442  0.86019966     0.40750
H2853       H  0.71273448  0.92503050  0.82062863     0.40370
H2854       H  0.69377524  0.93652111  0.83579950     0.35260
C2855       C  0.77007716  0.82100113  0.84356068    -0.26470
C2856       C  0.74876331  0.80292442  0.84423824    -0.14540
C2857       C  0.72746542  0.80823544  0.85435590     0.36090
C2858       C  0.72795373  0.83111551  0.86358066    -0.25920
C2859       C  0.75019424  0.84856323  0.86395863    -0.15160
C2860       C  0.77087961  0.84363697  0.85300728     0.37170
N2861       N  0.79312435  0.86143847  0.85155323    -0.89410
H2862       H  0.78628010  0.81781649  0.83547668     0.18290
H2863       H  0.71040771  0.83478415  0.87038249     0.18280
N2864       N  0.70540675  0.79016776  0.85568053    -0.88440
H2865       H  0.79397828  0.86825820  0.83988120     0.35660
H2866       H  0.81032083  0.85099637  0.85380624     0.40750
H2867       H  0.68826763  0.80025757  0.85276434     0.40370
H2868       H  0.70385190  0.78408127  0.86747417     0.35260
C2869       C  0.49658015  0.95036278  0.63729523    -0.26470
C2870       C  0.49403166  0.94859770  0.65365874    -0.14540
C2871       C  0.99165903  0.92374247  0.66097180     0.36090
C2872       C  0.99283239  0.90086444  0.65174369    -0.25920
C2873       C  0.49727733  0.90206924  0.63522824    -0.15160
C2874       C  0.49776548  0.92760563  0.62802354     0.37170
N2875       N  0.50052990  0.93061200  0.61126536    -0.89410
H2876       H  0.49791755  0.96958480  0.63165235     0.18290
H2877       H  0.98953356  0.88221720  0.65767058     0.18280
N2878       N  0.98786798  0.92185590  0.67778095    -0.88440
H2879       H  0.51752817  0.94210547  0.60897265     0.35660
H2880       H  0.48424515  0.94087023  0.60706377     0.40750
H2881       H  0.00494363  0.92948279  0.68318770     0.40370
H2882       H  0.98604843  0.90213789  0.68136014     0.35260
C2883       C  0.98684428  0.80462302  0.64114554    -0.26470
C2884       C  0.50498177  0.80374089  0.65356716    -0.14540
C2885       C  0.52197420  0.82575049  0.65606135     0.36090
C2886       C  0.51967298  0.84819227  0.64655920    -0.25920
C2887       C  0.50009737  0.85037338  0.63473661    -0.15160
C2888       C  0.98486489  0.82693972  0.63136791     0.37170
N2889       N  0.96852677  0.82458892  0.61761293    -0.89410
H2890       H  0.97440895  0.78743914  0.63871663     0.18290
H2891       H  0.53296707  0.86460711  0.64888259     0.18280
N2892       N  0.54101445  0.82658886  0.66856657    -0.88440
H2893       H  0.97550792  0.80916914  0.61072971     0.35660
H2894       H  0.94931221  0.81947543  0.62123403     0.40750
H2895       H  0.55543694  0.81270509  0.66635956     0.40370
H2896       H  0.53147834  0.82210631  0.67923869     0.35260
loop_ 
_geom_bond_atom_site_label_1 
_geom_bond_atom_site_label_2 
_geom_bond_distance 
_geom_bond_site_symmetry_2 
_ccdc_geom_bond_type 
O1           Cu9   2.009       .  S
O1           C11   1.277       .  A
O2           Cu9   2.004       .  S
O2           C12   1.278       .  A
O3           Cu9   2.013       .  S
O3           C13   1.277       .  A
O4           Cu9   2.006       .  S
O4           C14   1.278       .  A
O5          Cu10   2.009       .  S
O5           C14   1.277       .  A
O6          Cu10   2.004       .  S
O6           C13   1.278       .  A
O7          Cu10   2.010       .  S
O7           C12   1.277       .  A
O8          Cu10   2.004       .  S
O8           C11   1.278       .  A
Cu9         Cu10   2.376       .  S
C11          C90   1.467       .  S
C12          C56   1.467       .  S
C13         C114   1.468       .  S
C14          C32   1.467       .  S
O15         Cu23   2.011       .  S
O15          C25   1.277       .  A
O16         Cu23   2.004       .  S
O16          C26   1.278       .  A
O17         Cu23   2.010       .  S
O17          C27   1.277       .  A
O18         Cu23   2.002       .  S
O18          C28   1.278       .  A
O19         Cu24   2.012       .  S
O19          C28   1.277       .  A
O20         Cu24   2.006       .  S
O20          C27   1.278       .  A
O21         Cu24   2.014       .  S
O21          C26   1.277       .  A
O22         Cu24   2.006       .  S
O22          C25   1.278       .  A
Cu23        Cu24   2.376       .  S
C25          C66   1.468       .  S
C26          C80   1.469       .  S
C27          C42   1.468       .  S
C28         C104   1.467       .  S
N29          N30   1.321       .  A
N29          C33   1.348       .  A
N29         Cu37   2.076       .  S
N30          C31   1.341       .  A
N30         Cu36   2.055       .  S
C31          C32   1.379       .  A
C31          H34   1.082       .  S
C32          C33   1.386       .  A
C33          H35   1.082       .  S
Cu36       N1487   2.054   1_455  S
Cu37         N47   2.078       .  S
Cu38         N40   2.077       .  S
Cu38         N46   2.079       .  S
N39          N40   1.321       .  A
N39          C43   1.341       .  A
N39       Cu1484   2.054       .  S
N40          C41   1.348       .  A
C41          C42   1.387       .  A
C41          H44   1.082       .  S
C42          C43   1.379       .  A
C43          H45   1.082       .  S
N46        N1495   1.323       .  A
N46          C50   1.344       .  A
N47        N1494   1.323   1_455  A
N47          C48   1.345       .  A
C48          C49   1.385       .  A
C48          H51   1.080       .  S
C49         C712   1.482       .  S
C49        C1498   1.384   1_455  A
C50        C1497   1.384       .  A
C50          H52   1.082       .  S
N53          N54   1.321       .  A
N53          C57   1.348       .  A
N53         Cu61   2.077       .  S
N54          C55   1.340       .  A
N54         Cu60   2.055   1_455  S
C55          C56   1.379       .  A
C55          H58   1.082       .  S
C56          C57   1.387       .  A
C57          H59   1.082       .  S
Cu60       N1511   2.055       .  S
Cu61        N795   2.078       .  S
Cu62         N64   2.077       .  S
Cu62        N794   2.078       .  S
N63          N64   1.321       .  A
N63          C67   1.341       .  A
N63       Cu1508   2.055       .  S
N64          C65   1.348       .  A
C65          C66   1.387       .  A
C65          H68   1.082       .  S
C66          C67   1.379       .  A
C67          H69   1.082       .  S
N70        N1519   1.325       .  A
N70          C74   1.346       .  A
N70        Cu786   2.078       .  S
N71        N1518   1.325   1_455  A
N71          C72   1.345       .  A
N71        Cu785   2.078       .  S
C72          C73   1.380   1_455  A
C72          H75   1.082       .  S
C73         C698   1.470       .  S
C73        C1522   1.381       .  A
C74        C1521   1.381       .  A
C74          H76   1.082       .  S
N77          N78   1.321       .  A
N77          C81   1.349       .  A
N77         Cu85   2.083       .  S
N78          C79   1.340       .  A
N78         Cu84   2.054       .  S
C79          C80   1.378       .  A
C79          H82   1.082       .  S
C80          C81   1.388       .  A
C81          H83   1.082       .  S
Cu84         N87   2.055       .  S
Cu85         N95   2.084       .  S
Cu86         N88   2.072       .  S
Cu86         N94   2.073       .  S
N87          N88   1.320       .  A
N87          C91   1.341       .  A
N88          C89   1.347       .  A
C89          C90   1.386       .  A
C89          H92   1.082       .  S
C90          C91   1.379       .  A
C91          H93   1.082       .  S
N94          N95   1.323       .  A
N94          C98   1.343       .  A
N95          C96   1.346       .  A
C96          C97   1.388       .  A
C96          H99   1.082       .  S
C97         C684   1.488       .  S
C97          C98   1.386       .  A
C98         H100   1.081       .  S
N101        N102   1.320       .  A
N101        C105   1.348       .  A
N101       Cu109   2.072       .  S
N102        C103   1.340       .  A
N102       Cu108   2.054       .  S
C103        C104   1.379       .  A
C103        H106   1.082       .  S
C104        C105   1.386       .  A
C105        H107   1.082       .  S
Cu108       N111   2.054       .  S
Cu109       N843   2.075   1_545  S
Cu110       N112   2.082       .  S
Cu110       N842   2.083   1_545  S
N111        N112   1.321       .  A
N111        C115   1.340       .  A
N112        C113   1.349       .  A
C113        C114   1.388       .  A
C113        H116   1.082       .  S
C114        C115   1.378       .  A
C115        H117   1.082       .  S
N118        N119   1.322       .  A
N118        C122   1.345       .  A
N118       Cu834   2.083       .  S
N119        C120   1.343       .  A
N119       Cu833   2.075       .  S
C120        C121   1.387       .  A
C120        H123   1.082       .  S
C121        C670   1.491       .  S
C121        C122   1.390       .  A
C122        H124   1.078       .  S
C125        C645   1.571   1_655  S
C125        C701   1.564       .  S
C125        C715   1.571   1_655  S
C125       C2104   1.563       .  S
O126       Cu858   2.013   1_545  S
O126        C136   1.277       .  A
O127       Cu134   2.006       .  S
O127        C137   1.278       .  A
O128       Cu858   2.011   1_545  S
O128        C138   1.277       .  A
O129       Cu134   2.006       .  S
O129        C139   1.278       .  A
O130       Cu859   2.010       .  S
O130        C139   1.277       .  A
O131       Cu135   2.005       .  S
O131        C138   1.278       .  A
O132       Cu859   2.013       .  S
O132        C137   1.277       .  A
O133       Cu135   2.007       .  S
O133        C136   1.278       .  A
Cu134       O850   2.013       .  S
Cu134       O852   2.011       .  S
Cu134      Cu859   2.376       .  S
Cu135       O854   2.010   1_545  S
Cu135       O856   2.013   1_545  S
Cu135      Cu858   2.376   1_545  S
C136        C191   1.469       .  S
C137        C205   1.469       .  S
C138        C167   1.468       .  S
C139        C229   1.468       .  S
O140       Cu148   2.010       .  S
O140        C150   1.277       .  A
O141       Cu148   2.005       .  S
O141        C151   1.278       .  A
O142       Cu148   2.014       .  S
O142        C152   1.277       .  A
O143       Cu148   2.008       .  S
O143        C153   1.278       .  A
O144       Cu149   2.012       .  S
O144        C153   1.277       .  A
O145       Cu149   2.004       .  S
O145        C152   1.278       .  A
O146       Cu149   2.010       .  S
O146        C151   1.277       .  A
O147       Cu149   2.004       .  S
O147        C150   1.278       .  A
Cu148      Cu149   2.376       .  S
C150        C215   1.467       .  S
C151        C181   1.467       .  S
C152        C239   1.469       .  S
C153        C157   1.469       .  S
N154        N155   1.321       .  A
N154        C158   1.349       .  A
N154       Cu162   2.083       .  S
N155        C156   1.341       .  A
N155       Cu161   2.055       .  S
C156        C157   1.379       .  A
C156        H159   1.082       .  S
C157        C158   1.388       .  A
C158        H160   1.082       .  S
Cu161       N164   2.055       .  S
Cu162       N172   2.084       .  S
Cu163       N165   2.076       .  S
Cu163       N171   2.078       .  S
N164        N165   1.321       .  A
N164        C168   1.341       .  A
N165        C166   1.348       .  A
C166        C167   1.387       .  A
C166        H169   1.082       .  S
C167        C168   1.379       .  A
C168        H170   1.082       .  S
N171        N172   1.324       .  A
N171        C175   1.344       .  A
N172        C173   1.346       .  A
C173        C174   1.386       .  A
C173        H176   1.082       .  S
C174        C631   1.482       .  S
C174        C175   1.384       .  A
C175        H177   1.082       .  S
N178        N179   1.320       .  A
N178        C182   1.347       .  A
N178       Cu186   2.073       .  S
N179        C180   1.341       .  A
N179       Cu185   2.055       .  S
C180        C181   1.379       .  A
C180        H183   1.082       .  S
C181        C182   1.386       .  A
C182        H184   1.082       .  S
Cu185       N188   2.055       .  S
Cu186       N196   2.075       .  S
Cu187       N189   2.084       .  S
Cu187       N195   2.085       .  S
N188        N189   1.321       .  A
N188        C192   1.340       .  A
N189        C190   1.349       .  A
C190        C191   1.388       .  A
C190        H193   1.082       .  S
C191        C192   1.378       .  A
C192        H194   1.082       .  S
N195        N196   1.325       .  A
N195        C199   1.346       .  A
N196        C197   1.345       .  A
C197        C198   1.380       .  A
C197        H200   1.082       .  S
C198        C614   1.474       .  S
C198        C199   1.383       .  A
C199        H201   1.082       .  S
N202        N203   1.321       .  A
N202        C206   1.349       .  A
N202       Cu210   2.080       .  S
N203        C204   1.340       .  A
N203       Cu209   2.055       .  S
C204        C205   1.379       .  A
C204        H207   1.082       .  S
C205        C206   1.387       .  A
C206        H208   1.082       .  S
Cu209       N212   2.055       .  S
Cu210       N220   2.081       .  S
Cu211       N213   2.076       .  S
Cu211       N219   2.077       .  S
N212        N213   1.321       .  A
N212        C216   1.341       .  A
N213        C214   1.348       .  A
C214        C215   1.387       .  A
C214        H217   1.082       .  S
C215        C216   1.379       .  A
C216        H218   1.082       .  S
N219        N220   1.324       .  A
N219        C223   1.345       .  A
N220        C221   1.345       .  A
C221        C222   1.385       .  A
C221        H224   1.082       .  S
C222        C642   1.484       .  S
C222        C223   1.385       .  A
C223        H225   1.081       .  S
N226        N227   1.321       .  A
N226        C230   1.348       .  A
N226       Cu234   2.076       .  S
N227        C228   1.341       .  A
N227       Cu233   2.055       .  S
C228        C229   1.379       .  A
C228        H231   1.082       .  S
C229        C230   1.387       .  A
C230        H232   1.082       .  S
Cu233       N236   2.055       .  S
Cu234       N244   2.078       .  S
Cu235       N237   2.080       .  S
Cu235       N243   2.082       .  S
N236        N237   1.321       .  A
N236        C240   1.340       .  A
N237        C238   1.349       .  A
C238        C239   1.387       .  A
C238        H241   1.082       .  S
C239        C240   1.379       .  A
C240        H242   1.082       .  S
N243        N244   1.325       .  A
N243        C247   1.345       .  A
N244        C245   1.345       .  A
C245        C246   1.381       .  A
C245        H248   1.082       .  S
C246        C659   1.472       .  S
C246        C247   1.381       .  A
C247        H249   1.082       .  S
O250       Cu258   2.016       .  S
O250        C260   1.277       .  A
O251       Cu258   2.008       .  S
O251        C261   1.278       .  A
O252       Cu258   2.013       .  S
O252        C262   1.277       .  A
O253       Cu258   2.006       .  S
O253        C263   1.278       .  A
O254       Cu259   2.012       .  S
O254        C263   1.277       .  A
O255       Cu259   2.006       .  S
O255        C262   1.278       .  A
O256       Cu259   2.010       .  S
O256        C261   1.277       .  A
O257       Cu259   2.004       .  S
O257        C260   1.278       .  A
Cu258      Cu259   2.376       .  S
C260        C281   1.469       .  S
C261        C305   1.469       .  S
C262        C329   1.469       .  S
C263        C353   1.468       .  S
O264       Cu272   2.012       .  S
O264        C274   1.277       .  A
O265       Cu272   2.006       .  S
O265        C275   1.278       .  A
O266       Cu272   2.012       .  S
O266        C276   1.277       .  A
O267       Cu272   2.006       .  S
O267        C277   1.278       .  A
O268       Cu273   2.014       .  S
O268        C277   1.277       .  A
O269       Cu273   2.007       .  S
O269        C276   1.278       .  A
O270       Cu273   2.012       .  S
O270        C275   1.277       .  A
O271       Cu273   2.007       .  S
O271        C274   1.278       .  A
Cu272      Cu273   2.376       .  S
C274        C315   1.469       .  S
C275        C291   1.469       .  S
C276        C363   1.469       .  S
C277        C339   1.470       .  S
N278        N279   1.321       .  A
N278        C282   1.349       .  A
N278       Cu286   2.081       .  S
N279        C280   1.340       .  A
N279      Cu1733   2.054       .  S
C280        C281   1.379       .  A
C280        H283   1.082       .  S
C281        C282   1.388       .  A
C282        H284   1.082       .  S
Cu285       N288   2.055       .  S
Cu285      N1727   2.054   1_455  S
Cu286      N1020   2.083       .  S
Cu287       N289   2.080       .  S
Cu287      N1019   2.082       .  S
N288        N289   1.321       .  A
N288        C292   1.341       .  A
N289        C290   1.349       .  A
C290        C291   1.387       .  A
C290        H293   1.082       .  S
C291        C292   1.379       .  A
C292        H294   1.082       .  S
N295       N1744   1.324   1_465  A
N295        C299   1.346   1_565  A
N295      Cu1011   2.082       .  S
N296       N1743   1.324   1_545  A
N296        C297   1.345       .  A
N296      Cu1010   2.083   1_545  S
C297       C1746   1.386       .  A
C297        H300   1.082       .  S
C298        C600   1.486       .  S
C298        C299   1.387       .  A
C298       C1745   1.386   1_455  A
C299        H301   1.079       .  S
N302        N303   1.321       .  A
N302        C306   1.348       .  A
N302       Cu310   2.079       .  S
N303        C304   1.341       .  A
N303       Cu309   2.056       .  S
C304        C305   1.379       .  A
C304        H307   1.082       .  S
C305        C306   1.387       .  A
C306        H308   1.082       .  S
Cu309       N312   2.055       .  S
Cu310       N320   2.081       .  S
Cu311       N313   2.080       .  S
Cu311       N319   2.081       .  S
N312        N313   1.321       .  A
N312        C316   1.341       .  A
N313        C314   1.348       .  A
C314        C315   1.387       .  A
C314        H317   1.082       .  S
C315        C316   1.379       .  A
C316        H318   1.082       .  S
N319        N320   1.324       .  A
N319        C323   1.345       .  A
N320        C321   1.345       .  A
C321        C322   1.386       .  A
C321        H324   1.082       .  S
C322        C586   1.486       .  S
C322        C323   1.386       .  A
C323        H325   1.082       .  S
N326        N327   1.320       .  A
N326        C330   1.349       .  A
N326       Cu334   2.078       .  S
N327        C328   1.341       .  A
N327      Cu1781   2.054       .  S
C328        C329   1.379       .  A
C328        H331   1.082       .  S
C329        C330   1.387       .  A
C330        H332   1.082       .  S
Cu333       N336   2.054   1_655  S
Cu333      N1775   2.054       .  S
Cu334       N344   2.080       .  S
Cu335       N337   2.084       .  S
Cu335       N343   2.086       .  S
N336        N337   1.321       .  A
N336        C340   1.340       .  A
N337        C338   1.349       .  A
C338        C339   1.388       .  A
C338        H341   1.082       .  S
C339        C340   1.378       .  A
C340        H342   1.082       .  S
N343       N1792   1.325   1_455  A
N343        C347   1.346       .  A
N344       N1791   1.325       .  A
N344        C345   1.346       .  A
C345       C1794   1.381       .  A
C345        H348   1.082       .  S
C346        C572   1.476       .  S
C346        C347   1.383   1_655  A
C346       C1793   1.381       .  A
C347        H349   1.082       .  S
N350        N351   1.320       .  A
N350        C354   1.348       .  A
N350       Cu358   2.077       .  S
N351        C352   1.341       .  A
N351       Cu357   2.055       .  S
C352        C353   1.379       .  A
C352        H355   1.082       .  S
C353        C354   1.387       .  A
C354        H356   1.082       .  S
Cu357       N360   2.055       .  S
Cu358      N1092   2.079       .  S
Cu359       N361   2.082       .  S
Cu359      N1091   2.083       .  S
N360        N361   1.321       .  A
N360        C364   1.340       .  A
N361        C362   1.349       .  A
C362        C363   1.388       .  A
C362        H365   1.082       .  S
C363        C364   1.379       .  A
C364        H366   1.082       .  S
N367        N368   1.325       .  A
N367        C371   1.346   1_565  A
N367      Cu1083   2.083       .  S
N368        C369   1.345   1_565  A
N368      Cu1082   2.079       .  S
C369        C370   1.380       .  A
C369        H372   1.082       .  S
C370        C558   1.473       .  S
C370        C371   1.382       .  A
C371        H373   1.082       .  S
C374        C575   1.572       .  S
C374        C603   1.573   1_655  S
C374        C628   1.574   1_655  S
C374       C2065   1.557       .  S
O375       Cu383   2.010       .  S
O375        C385   1.277       .  A
O376      Cu1831   2.004       .  S
O376        C386   1.278   1_554  A
O377      Cu1831   2.013       .  S
O377        C387   1.277       .  A
O378       Cu383   2.006       .  S
O378        C388   1.278   1_554  A
O379       Cu384   2.008       .  S
O379        C388   1.276       .  A
O380      Cu1832   2.002       .  S
O380        C387   1.278   1_556  A
O381      Cu1832   2.015       .  S
O381        C386   1.277       .  A
O382       Cu384   2.009       .  S
O382        C385   1.278   1_556  A
Cu383      O1824   2.004   1_455  S
Cu383      O1825   2.013   1_455  S
Cu383      Cu384   2.376   1_554  S
Cu384      O1828   2.002   1_455  S
Cu384      O1829   2.015   1_455  S
C385        C464   1.469       .  S
C386        C488   1.469       .  S
C387        C416   1.468       .  S
C388        C440   1.467       .  S
O389      Cu2569   2.013       .  S
O389        C399   1.277       .  A
O390       Cu397   2.006       .  S
O390        C400   1.278   1_556  A
O391      Cu1121   2.016       .  S
O391        C401   1.277       .  A
O392      Cu1845   2.009       .  S
O392        C402   1.279   1_556  A
O393      Cu2570   2.012   1_545  S
O393        C402   1.277       .  A
O394       Cu398   2.004       .  S
O394        C401   1.278   1_554  A
O395      Cu1122   2.011   1_545  S
O395        C400   1.277       .  A
O396      Cu1846   2.004       .  S
O396        C399   1.278   1_554  A
Cu397      O2561   2.013   1_445  S
Cu397      O1115   2.016   1_545  S
Cu397      O1840   2.009   1_455  S
Cu397     Cu1122   2.376   1_546  S
Cu398      O2565   2.012   1_455  S
Cu398      O1119   2.011       .  S
Cu398      O1844   2.004   1_455  S
Cu398     Cu1121   2.376   1_554  S
C399        C478   1.468       .  S
C400        C454   1.468       .  S
C401        C430   1.469       .  S
C402        C406   1.469       .  S
N403        N404   1.321       .  A
N403        C407   1.349       .  A
N403       Cu411   2.082       .  S
N404        C405   1.341       .  A
N404       Cu410   2.055       .  S
C405        C406   1.379       .  A
C405        H408   1.082       .  S
C406        C407   1.388       .  A
C407        H409   1.082       .  S
Cu410       N413   2.055       .  S
Cu411       N421   2.084       .  S
Cu412       N414   2.077       .  S
Cu412       N420   2.079       .  S
N413        N414   1.321       .  A
N413        C417   1.340       .  A
N414        C415   1.348       .  A
C415        C416   1.387       .  A
C415        H418   1.082       .  S
C416        C417   1.379       .  A
C417        H419   1.082       .  S
N420        N421   1.325       .  A
N420        C424   1.345       .  A
N421        C422   1.347       .  A
C422        C423   1.382       .  A
C422        H425   1.082       .  S
C423        C544   1.473       .  S
C423        C424   1.380       .  A
C424        H426   1.082       .  S
N427        N428   1.321       .  A
N427        C431   1.349       .  A
N427       Cu435   2.080       .  S
N428        C429   1.340       .  A
N428       Cu434   2.055       .  S
C429        C430   1.379       .  A
C429        H432   1.082   1_556  S
C430        C431   1.388       .  A
C431        H433   1.082       .  S
Cu434       N437   2.055       .  S
Cu435       N445   2.082       .  S
Cu436       N438   2.076       .  S
Cu436       N444   2.077       .  S
N437        N438   1.321       .  A
N437        C441   1.341       .  A
N438        C439   1.348       .  A
C439        C440   1.386       .  A
C439        H442   1.082       .  S
C440        C441   1.379       .  A
C441        H443   1.082   1_556  S
N444        N445   1.323       .  A
N444        C448   1.345       .  A
N445        C446   1.344       .  A
C446        C447   1.388       .  A
C446        H449   1.081       .  S
C447        C530   1.488       .  S
C447        C448   1.386       .  A
C448        H450   1.082       .  S
N451        N452   1.321       .  A
N451        C455   1.348       .  A
N451       Cu459   2.077       .  S
N452        C453   1.341       .  A
N452       Cu458   2.055       .  S
C453        C454   1.379       .  A
C453        H456   1.082   1_554  S
C454        C455   1.387       .  A
C455        H457   1.082       .  S
Cu458       N461   2.056       .  S
Cu459       N469   2.078       .  S
Cu460       N462   2.081       .  S
Cu460       N468   2.082       .  S
N461        N462   1.321       .  A
N461        C465   1.341       .  A
N462        C463   1.348       .  A
C463        C464   1.387       .  A
C463        H466   1.082       .  S
C464        C465   1.379       .  A
C465        H467   1.082   1_554  S
N468        N469   1.324       .  A
N468        C472   1.346       .  A
N469        C470   1.344       .  A
C470        C471   1.385       .  A
C470        H473   1.082       .  S
C471        C516   1.484       .  S
C471        C472   1.386       .  A
C472        H474   1.082       .  S
N475        N476   1.321       .  A
N475        C479   1.349       .  A
N475       Cu483   2.080       .  S
N476        C477   1.340       .  A
N476       Cu482   2.055       .  S
C477        C478   1.378       .  A
C477        H480   1.082   1_556  S
C478        C479   1.387       .  A
C479        H481   1.082       .  S
Cu482       N485   2.055       .  S
Cu483       N493   2.081       .  S
Cu484       N486   2.077       .  S
Cu484       N492   2.080       .  S
N485        N486   1.320       .  A
N485        C489   1.340       .  A
N486        C487   1.349       .  A
C487        C488   1.387       .  A
C487        H490   1.082       .  S
C488        C489   1.379       .  A
C489        H491   1.082   1_556  S
N492        N493   1.323       .  A
N492        C496   1.344       .  A
N493        C494   1.346       .  A
C494        C495   1.387       .  A
C494        H497   1.082       .  S
C495        C502   1.488       .  S
C495        C496   1.387       .  A
C496        H498   1.081       .  S
C499        C519   1.572       .  S
C499        C547   1.569       .  S
C499        C561   1.567       .  S
C499        C589   1.565       .  S
C500        C505   1.564       .  S
C500        C533   1.573       .  S
C500        C673   1.569       .  S
C500        C687   1.571       .  S
C501        C502   1.403       .  A
C501        C506   1.405       .  A
C501        H508   1.083       .  S
C502        C503   1.407       .  A
C503        C504   1.400       .  A
C503        N510   1.432       .  S
C504        C505   1.416       .  A
C504        H509   1.077       .  S
C505        C506   1.424       .  A
C506        N507   1.433       .  S
N507        H511   1.045       .  S
N507        H512   1.046       .  S
N510        H513   1.046       .  S
N510        H514   1.046       .  S
C515        C516   1.401       .  A
C515        C520   1.403       .  A
C515        H522   1.084       .  S
C516        C517   1.415       .  A
C517        C518   1.402       .  A
C517        N524   1.441       .  S
C518        C519   1.418       .  A
C518        H523   1.079       .  S
C519        C520   1.424       .  A
C520        N521   1.433       .  S
N521        H525   1.046       .  S
N521        H526   1.046       .  S
N524        H527   1.042       .  S
N524        H528   1.046       .  S
C529        C530   1.402       .  A
C529        C534   1.404       .  A
C529        H536   1.083       .  S
C530        C531   1.409       .  A
C531        C532   1.404       .  A
C531        N538   1.438       .  S
C532        C533   1.419       .  A
C532        H537   1.077       .  S
C533        C534   1.424       .  A
C534        N535   1.433       .  S
N535        H539   1.046       .  S
N535        H540   1.046       .  S
N538        H541   1.046       .  S
N538        H542   1.046       .  S
C543        C544   1.395       .  A
C543        C548   1.402       .  A
C543        H550   1.084       .  S
C544        C545   1.412       .  A
C545        C546   1.402       .  A
C545        N552   1.439       .  S
C546        C547   1.417       .  A
C546        H551   1.080       .  S
C547        C548   1.426       .  A
C548        N549   1.430       .  S
N549        H553   1.046       .  S
N549        H554   1.046       .  S
N552        H555   1.043       .  S
N552        H556   1.046       .  S
C557        C558   1.397       .  A
C557        C562   1.404       .  A
C557        H564   1.085       .  S
C558        C559   1.408       .  A
C559        C560   1.400       .  A
C559        N566   1.439       .  S
C560        C561   1.419       .  A
C560        H565   1.084       .  S
C561        C562   1.429       .  A
C562        N563   1.432       .  S
N563        H567   1.046       .  S
N563        H568   1.045       .  S
N566        H570   1.046       .  S
N566       H1293   1.043       .  S
H569       N1290   1.043       .  S
C571        C576   1.406       .  A
C571       C2020   1.398       .  A
C571        H578   1.084       .  S
C572        C573   1.409   1_655  A
C572       C2019   1.398       .  A
C573        C574   1.400       .  A
C573        N580   1.439       .  S
C574        C575   1.418   1_455  A
C574        H579   1.080       .  S
C575       C2024   1.429       .  A
C576       C2023   1.429       .  A
C576        N577   1.432       .  S
N577        H581   1.046       .  S
N577        H582   1.046       .  S
N580        H583   1.043       .  S
N580        H584   1.046       .  S
C585        C586   1.400       .  A
C585        C590   1.402       .  A
C585        H592   1.083       .  S
C586        C587   1.408       .  A
C587        C588   1.406       .  A
C587        N594   1.438       .  S
C588        C589   1.417       .  A
C588        H593   1.078       .  S
C589        C590   1.425       .  A
C590        N591   1.433       .  S
N591        H595   1.046       .  S
N591        H596   1.045       .  S
N594        H597   1.046       .  S
N594        H598   1.046       .  S
C599        C604   1.403       .  A
C599       C2048   1.397       .  A
C599        H606   1.085       .  S
C600        C601   1.409       .  A
C600       C2047   1.397   1_455  A
C601        C602   1.397       .  A
C601        N608   1.432       .  S
C602        C603   1.419       .  A
C602        H607   1.082       .  S
C603       C2052   1.445   1_455  A
C604       C2051   1.445       .  A
C604        N605   1.438       .  S
N605        H609   1.045       .  S
N605        H610   1.033       .  S
N608        H611   1.045       .  S
N608        H612   1.043       .  S
C613        C614   1.399       .  A
C613        C618   1.404       .  A
C613        H620   1.084       .  S
C614        C615   1.409       .  A
C615        C616   1.400       .  A
C615        N622   1.439       .  S
C616        C617   1.416       .  A
C616        H621   1.079       .  S
C617        C618   1.426       .  A
C617       C1822   1.557       .  S
C618       N2067   1.432       .  S
N619       C2066   1.432       .  S
N619        H623   1.046   1_655  S
N619        H624   1.046       .  S
N622        H625   1.043       .  S
N622        H626   1.046       .  S
C627        C628   1.421       .  A
C627        C632   1.403       .  A
C627        H634   1.080       .  S
C628        C629   1.423       .  A
C629        C630   1.402       .  A
C629       N2084   1.427       .  S
C630        C631   1.399       .  A
C630        H635   1.084       .  S
C631        C632   1.412       .  A
C632        N633   1.440       .  S
N633        H637   1.046       .  S
N633        H638   1.042       .  S
N636       C2077   1.427       .  S
N636        H639   1.046       .  S
N636        H640   1.046       .  S
C641        C642   1.398       .  A
C641        C646   1.407       .  A
C641        H648   1.084       .  S
C642        C643   1.408       .  A
C643        C644   1.404       .  A
C643        N650   1.438       .  S
C644        C645   1.416       .  A
C644        H649   1.081       .  S
C645        C646   1.435       .  A
C646        N647   1.438       .  S
N647        H651   1.046       .  S
N647        H652   1.042       .  S
N650        H653   1.046       .  S
N650        H654   1.046       .  S
C655        C656   1.416       .  A
C655        C660   1.401       .  A
C655        H662   1.079       .  S
C656        C657   1.426       .  A
C656       C1573   1.563       .  S
C657        C658   1.402       .  A
C657        N664   1.432       .  S
C658        C659   1.395       .  A
C658        H663   1.084       .  S
C659        C660   1.413       .  A
C660        N661   1.439       .  S
N661        H665   1.046       .  S
N661        H666   1.043       .  S
N664        H667   1.046       .  S
N664        H668   1.046       .  S
C669        C670   1.402       .  A
C669        C674   1.404       .  A
C669        H676   1.083       .  S
C670        C671   1.415       .  A
C671        C672   1.397       .  A
C671        N678   1.431       .  S
C672        C673   1.416       .  A
C672        H677   1.084       .  S
C673        C674   1.428       .  A
C674        N675   1.432       .  S
N675        H679   1.046       .  S
N675        H680   1.046       .  S
N678        H681   1.045       .  S
N678        H682   1.042       .  S
C683        C684   1.401       .  A
C683        C688   1.403       .  A
C683        H690   1.083       .  S
C684        C685   1.408       .  A
C685        C686   1.402       .  A
C685        N692   1.432       .  S
C686        C687   1.416       .  A
C686        H691   1.078       .  S
C687        C688   1.425       .  A
C688        N689   1.432       .  S
N689        H693   1.046       .  S
N689        H694   1.046       .  S
N692        H695   1.046       .  S
N692        H696   1.046       .  S
C697        C698   1.393       .  A
C697        C702   1.402       .  A
C697        H704   1.084       .  S
C698       C2147   1.404       .  A
C699        C700   1.405       .  A
C699       C2146   1.404       .  A
C699        N706   1.438       .  S
C700       C2149   1.417       .  A
C700        H705   1.078       .  S
C701        C702   1.428       .  A
C701       C2148   1.417       .  A
C702        N703   1.432   1_655  S
N703        H707   1.046       .  S
N703        H708   1.046   1_455  S
N706        H709   1.046       .  S
N706        H710   1.046       .  S
C711        C716   1.404       .  A
C711       C2160   1.397       .  A
C711        H718   1.084       .  S
C712        C713   1.411       .  A
C712       C2159   1.397   1_455  A
C713        C714   1.397       .  A
C713        N720   1.432       .  S
C714        C715   1.414       .  A
C714        H719   1.078       .  S
C715       C2164   1.432   1_455  A
C716       C2163   1.432       .  A
C716        N717   1.432       .  S
N717        H721   1.046       .  S
N717        H722   1.046       .  S
N720        H723   1.043       .  S
N720        H724   1.045       .  S
O725       Cu733   2.009       .  S
O725        C735   1.277       .  A
O726       Cu733   2.004       .  S
O726        C736   1.278       .  A
O727       Cu733   2.013       .  S
O727        C737   1.277       .  A
O728       Cu733   2.006       .  S
O728        C738   1.278       .  A
O729       Cu734   2.009       .  S
O729        C738   1.277       .  A
O730       Cu734   2.004       .  S
O730        C737   1.278       .  A
O731       Cu734   2.010       .  S
O731        C736   1.277       .  A
O732       Cu734   2.004       .  S
O732        C735   1.278       .  A
Cu733      Cu734   2.376       .  S
C735        C814   1.467       .  S
C736        C780   1.467       .  S
C737        C838   1.468       .  S
C738        C756   1.467       .  S
O739       Cu747   2.011       .  S
O739        C749   1.277       .  A
O740       Cu747   2.004       .  S
O740        C750   1.278       .  A
O741       Cu747   2.010       .  S
O741        C751   1.277       .  A
O742       Cu747   2.002       .  S
O742        C752   1.278       .  A
O743       Cu748   2.012       .  S
O743        C752   1.277       .  A
O744       Cu748   2.006       .  S
O744        C751   1.278       .  A
O745       Cu748   2.014       .  S
O745        C750   1.277       .  A
O746       Cu748   2.006       .  S
O746        C749   1.278       .  A
Cu747      Cu748   2.376       .  S
C749        C790   1.468       .  S
C750        C804   1.469       .  S
C751        C766   1.468       .  S
C752        C828   1.467       .  S
N753        N754   1.321       .  A
N753        C757   1.348       .  A
N753       Cu761   2.076       .  S
N754        C755   1.341       .  A
N754       Cu760   2.055       .  S
C755        C756   1.379       .  A
C755        H758   1.082       .  S
C756        C757   1.386       .  A
C757        H759   1.082       .  S
Cu760      N2211   2.054   1_455  S
Cu761       N771   2.078       .  S
Cu762       N764   2.077       .  S
Cu762       N770   2.079       .  S
N763        N764   1.321       .  A
N763        C767   1.341       .  A
N763      Cu2208   2.054       .  S
N764        C765   1.348       .  A
C765        C766   1.387       .  A
C765        H768   1.082       .  S
C766        C767   1.379       .  A
C767        H769   1.082       .  S
N770       N2219   1.323       .  A
N770        C774   1.344       .  A
N771       N2218   1.323   1_455  A
N771        C772   1.345       .  A
C772        C773   1.385       .  A
C772        H775   1.080       .  S
C773       C1436   1.482       .  S
C773       C2222   1.384   1_455  A
C774       C2221   1.384       .  A
C774        H776   1.082       .  S
N777        N778   1.321       .  A
N777        C781   1.348       .  A
N777       Cu785   2.077       .  S
N778        C779   1.340       .  A
N778       Cu784   2.055   1_455  S
C779        C780   1.379       .  A
C779        H782   1.082       .  S
C780        C781   1.387       .  A
C781        H783   1.082       .  S
Cu784      N2235   2.055       .  S
Cu786       N788   2.077       .  S
N787        N788   1.321       .  A
N787        C791   1.341       .  A
N787      Cu2232   2.055       .  S
N788        C789   1.348       .  A
C789        C790   1.387       .  A
C789        H792   1.082       .  S
C790        C791   1.379       .  A
C791        H793   1.082       .  S
N794       N2243   1.325       .  A
N794        C798   1.346   1_545  A
N795       N2242   1.325   1_455  A
N795        C796   1.345   1_545  A
C796        C797   1.380   1_455  A
C796        H799   1.082       .  S
C797       C1422   1.470       .  S
C797       C2246   1.381       .  A
C798       C2245   1.381       .  A
C798        H800   1.082       .  S
N801        N802   1.321       .  A
N801        C805   1.349       .  A
N801       Cu809   2.083       .  S
N802        C803   1.340       .  A
N802       Cu808   2.054       .  S
C803        C804   1.378       .  A
C803        H806   1.082       .  S
C804        C805   1.388       .  A
C805        H807   1.082       .  S
Cu808       N811   2.055       .  S
Cu809       N819   2.084       .  S
Cu810       N812   2.072       .  S
Cu810       N818   2.073       .  S
N811        N812   1.320       .  A
N811        C815   1.341       .  A
N812        C813   1.347       .  A
C813        C814   1.386       .  A
C813        H816   1.082       .  S
C814        C815   1.379       .  A
C815        H817   1.082       .  S
N818        N819   1.323       .  A
N818        C822   1.343       .  A
N819        C820   1.346       .  A
C820        C821   1.388       .  A
C820        H823   1.082       .  S
C821       C1408   1.488       .  S
C821        C822   1.386       .  A
C822        H824   1.081       .  S
N825        N826   1.320       .  A
N825        C829   1.348       .  A
N825       Cu833   2.072       .  S
N826        C827   1.340       .  A
N826       Cu832   2.054       .  S
C827        C828   1.379       .  A
C827        H830   1.082       .  S
C828        C829   1.386       .  A
C829        H831   1.082       .  S
Cu832       N835   2.054       .  S
Cu834       N836   2.082       .  S
N835        N836   1.321       .  A
N835        C839   1.340       .  A
N836        C837   1.349       .  A
C837        C838   1.388       .  A
C837        H840   1.082       .  S
C838        C839   1.378       .  A
C839        H841   1.082       .  S
N842        N843   1.322       .  A
N842        C846   1.345       .  A
N843        C844   1.343       .  A
C844        C845   1.387       .  A
C844        H847   1.082       .  S
C845       C1394   1.491       .  S
C845        C846   1.390       .  A
C846        H848   1.078       .  S
C849       C1369   1.571   1_655  S
C849       C2828   1.563       .  S
C849       C1425   1.564       .  S
C849       C1439   1.571   1_655  S
O850        C860   1.277       .  A
O851       Cu858   2.006       .  S
O851        C861   1.278       .  A
O852        C862   1.277       .  A
O853       Cu858   2.006       .  S
O853        C863   1.278       .  A
O854        C863   1.277       .  A
O855       Cu859   2.005       .  S
O855        C862   1.278       .  A
O856        C861   1.277       .  A
O857       Cu859   2.007       .  S
O857        C860   1.278       .  A
C860        C915   1.469       .  S
C861        C929   1.469       .  S
C862        C891   1.468       .  S
C863        C953   1.468       .  S
O864       Cu872   2.010       .  S
O864        C874   1.277       .  A
O865       Cu872   2.005       .  S
O865        C875   1.278       .  A
O866       Cu872   2.014       .  S
O866        C876   1.277       .  A
O867       Cu872   2.008       .  S
O867        C877   1.278       .  A
O868       Cu873   2.012       .  S
O868        C877   1.277       .  A
O869       Cu873   2.004       .  S
O869        C876   1.278       .  A
O870       Cu873   2.010       .  S
O870        C875   1.277       .  A
O871       Cu873   2.004       .  S
O871        C874   1.278       .  A
Cu872      Cu873   2.376       .  S
C874        C939   1.467       .  S
C875        C905   1.467       .  S
C876        C963   1.469       .  S
C877        C881   1.469       .  S
N878        N879   1.321       .  A
N878        C882   1.349       .  A
N878       Cu886   2.083       .  S
N879        C880   1.341       .  A
N879       Cu885   2.055       .  S
C880        C881   1.379       .  A
C880        H883   1.082       .  S
C881        C882   1.388       .  A
C882        H884   1.082       .  S
Cu885       N888   2.055       .  S
Cu886       N896   2.084       .  S
Cu887       N889   2.076       .  S
Cu887       N895   2.078       .  S
N888        N889   1.321       .  A
N888        C892   1.341       .  A
N889        C890   1.348       .  A
C890        C891   1.387       .  A
C890        H893   1.082       .  S
C891        C892   1.379       .  A
C892        H894   1.082       .  S
N895        N896   1.324       .  A
N895        C899   1.344       .  A
N896        C897   1.346       .  A
C897        C898   1.386       .  A
C897        H900   1.082       .  S
C898       C1355   1.482       .  S
C898        C899   1.384       .  A
C899        H901   1.082       .  S
N902        N903   1.320       .  A
N902        C906   1.347       .  A
N902       Cu910   2.073       .  S
N903        C904   1.341       .  A
N903       Cu909   2.055       .  S
C904        C905   1.379       .  A
C904        H907   1.082       .  S
C905        C906   1.386       .  A
C906        H908   1.082       .  S
Cu909       N912   2.055       .  S
Cu910       N920   2.075       .  S
Cu911       N913   2.084       .  S
Cu911       N919   2.085       .  S
N912        N913   1.321       .  A
N912        C916   1.340       .  A
N913        C914   1.349       .  A
C914        C915   1.388       .  A
C914        H917   1.082       .  S
C915        C916   1.378       .  A
C916        H918   1.082       .  S
N919        N920   1.325       .  A
N919        C923   1.346       .  A
N920        C921   1.345       .  A
C921        C922   1.380       .  A
C921        H924   1.082       .  S
C922       C1338   1.474       .  S
C922        C923   1.383       .  A
C923        H925   1.082       .  S
N926        N927   1.321       .  A
N926        C930   1.349       .  A
N926       Cu934   2.080       .  S
N927        C928   1.340       .  A
N927       Cu933   2.055       .  S
C928        C929   1.379       .  A
C928        H931   1.082       .  S
C929        C930   1.387       .  A
C930        H932   1.082       .  S
Cu933       N936   2.055       .  S
Cu934       N944   2.081       .  S
Cu935       N937   2.076       .  S
Cu935       N943   2.077       .  S
N936        N937   1.321       .  A
N936        C940   1.341       .  A
N937        C938   1.348       .  A
C938        C939   1.387       .  A
C938        H941   1.082       .  S
C939        C940   1.379       .  A
C940        H942   1.082       .  S
N943        N944   1.324       .  A
N943        C947   1.345       .  A
N944        C945   1.345       .  A
C945        C946   1.385       .  A
C945        H948   1.082       .  S
C946       C1366   1.484       .  S
C946        C947   1.385       .  A
C947        H949   1.081       .  S
N950        N951   1.321       .  A
N950        C954   1.348       .  A
N950       Cu958   2.076       .  S
N951        C952   1.341       .  A
N951       Cu957   2.055       .  S
C952        C953   1.379       .  A
C952        H955   1.082       .  S
C953        C954   1.387       .  A
C954        H956   1.082       .  S
Cu957       N960   2.055       .  S
Cu958       N968   2.078       .  S
Cu959       N961   2.080       .  S
Cu959       N967   2.082       .  S
N960        N961   1.321       .  A
N960        C964   1.340       .  A
N961        C962   1.349       .  A
C962        C963   1.387       .  A
C962        H965   1.082       .  S
C963        C964   1.379       .  A
C964        H966   1.082       .  S
N967        N968   1.325       .  A
N967        C971   1.345       .  A
N968        C969   1.345       .  A
C969        C970   1.381       .  A
C969        H972   1.082       .  S
C970       C1383   1.472       .  S
C970        C971   1.381       .  A
C971        H973   1.082       .  S
O974       Cu982   2.016       .  S
O974        C984   1.277       .  A
O975       Cu982   2.008       .  S
O975        C985   1.278       .  A
O976       Cu982   2.013       .  S
O976        C986   1.277       .  A
O977       Cu982   2.006       .  S
O977        C987   1.278       .  A
O978       Cu983   2.012       .  S
O978        C987   1.277       .  A
O979       Cu983   2.006       .  S
O979        C986   1.278       .  A
O980       Cu983   2.010       .  S
O980        C985   1.277       .  A
O981       Cu983   2.004       .  S
O981        C984   1.278       .  A
Cu982      Cu983   2.376       .  S
C984       C1005   1.469       .  S
C985       C1029   1.469       .  S
C986       C1053   1.469       .  S
C987       C1077   1.468       .  S
O988       Cu996   2.012       .  S
O988        C998   1.277       .  A
O989       Cu996   2.006       .  S
O989        C999   1.278       .  A
O990       Cu996   2.012       .  S
O990       C1000   1.277       .  A
O991       Cu996   2.006       .  S
O991       C1001   1.278       .  A
O992       Cu997   2.014       .  S
O992       C1001   1.277       .  A
O993       Cu997   2.007       .  S
O993       C1000   1.278       .  A
O994       Cu997   2.012       .  S
O994        C999   1.277       .  A
O995       Cu997   2.007       .  S
O995        C998   1.278       .  A
Cu996      Cu997   2.376       .  S
C998       C1039   1.469       .  S
C999       C1015   1.469       .  S
C1000      C1087   1.469       .  S
C1001      C1063   1.470       .  S
N1002      N1003   1.321       .  A
N1002      C1006   1.349       .  A
N1002     Cu1010   2.081       .  S
N1003      C1004   1.340       .  A
N1003     Cu2457   2.054       .  S
C1004      C1005   1.379       .  A
C1004      H1007   1.082       .  S
C1005      C1006   1.388       .  A
C1006      H1008   1.082       .  S
Cu1009     N2451   2.054   1_455  S
Cu1009     N1012   2.055       .  S
Cu1011     N1013   2.080       .  S
N1012      N1013   1.321       .  A
N1012      C1016   1.341       .  A
N1013      C1014   1.349       .  A
C1014      C1015   1.387       .  A
C1014      H1017   1.082       .  S
C1015      C1016   1.379       .  A
C1016      H1018   1.082       .  S
N1019      N2468   1.324   1_455  A
N1019      C1023   1.346       .  A
N1020      N2467   1.324       .  A
N1020      C1021   1.345       .  A
C1021      C2470   1.386       .  A
C1021      H1024   1.082       .  S
C1022      C1324   1.486       .  S
C1022      C2469   1.386   1_455  A
C1022      C1023   1.387       .  A
C1023      H1025   1.079       .  S
N1026      N1027   1.321       .  A
N1026      C1030   1.348       .  A
N1026     Cu1034   2.079       .  S
N1027      C1028   1.341       .  A
N1027     Cu1033   2.056       .  S
C1028      C1029   1.379       .  A
C1028      H1031   1.082       .  S
C1029      C1030   1.387       .  A
C1030      H1032   1.082       .  S
Cu1033     N1036   2.055       .  S
Cu1034     N1044   2.081       .  S
Cu1035     N1037   2.080       .  S
Cu1035     N1043   2.081       .  S
N1036      N1037   1.321       .  A
N1036      C1040   1.341       .  A
N1037      C1038   1.348       .  A
C1038      C1039   1.387       .  A
C1038      H1041   1.082       .  S
C1039      C1040   1.379       .  A
C1040      H1042   1.082       .  S
N1043      N1044   1.324       .  A
N1043      C1047   1.345       .  A
N1044      C1045   1.345       .  A
C1045      C1046   1.386       .  A
C1045      H1048   1.082       .  S
C1046      C1310   1.486       .  S
C1046      C1047   1.386       .  A
C1047      H1049   1.082       .  S
N1050      N1051   1.320       .  A
N1050      C1054   1.349       .  A
N1050     Cu1058   2.078       .  S
N1051      C1052   1.341       .  A
N1051     Cu2505   2.054       .  S
C1052      C1053   1.379       .  A
C1052      H1055   1.082       .  S
C1053      C1054   1.387       .  A
C1054      H1056   1.082       .  S
Cu1057     N2499   2.054       .  S
Cu1057     N1060   2.054   1_655  S
Cu1058     N1068   2.080       .  S
Cu1059     N1061   2.084       .  S
Cu1059     N1067   2.086       .  S
N1060      N1061   1.321       .  A
N1060      C1064   1.340       .  A
N1061      C1062   1.349       .  A
C1062      C1063   1.388       .  A
C1062      H1065   1.082       .  S
C1063      C1064   1.378       .  A
C1064      H1066   1.082       .  S
N1067      N2516   1.325   1_455  A
N1067      C1071   1.346       .  A
N1068      N2515   1.325       .  A
N1068      C1069   1.346       .  A
C1069      C2518   1.381       .  A
C1069      H1072   1.082       .  S
C1070      C1296   1.476       .  S
C1070      C2517   1.381       .  A
C1070      C1071   1.383   1_655  A
C1071      H1073   1.082       .  S
N1074      N1075   1.320       .  A
N1074      C1078   1.348       .  A
N1074     Cu1082   2.077       .  S
N1075      C1076   1.341       .  A
N1075     Cu1081   2.055       .  S
C1076      C1077   1.379       .  A
C1076      H1079   1.082       .  S
C1077      C1078   1.387       .  A
C1078      H1080   1.082       .  S
Cu1081     N1084   2.055       .  S
Cu1083     N1085   2.082       .  S
N1084      N1085   1.321       .  A
N1084      C1088   1.340       .  A
N1085      C1086   1.349       .  A
C1086      C1087   1.388       .  A
C1086      H1089   1.082       .  S
C1087      C1088   1.379       .  A
C1088      H1090   1.082       .  S
N1091      N1092   1.325       .  A
N1091      C1095   1.346       .  A
N1092      C1093   1.345       .  A
C1093      C1094   1.380       .  A
C1093      H1096   1.082       .  S
C1094      C1282   1.473       .  S
C1094      C1095   1.382       .  A
C1095      H1097   1.082       .  S
C1098      C1299   1.572       .  S
C1098      C1327   1.573   1_655  S
C1098      C2789   1.557       .  S
C1098      C1352   1.574   1_655  S
O1099     Cu1107   2.010       .  S
O1099      C1109   1.277       .  A
O1100     Cu2555   2.004       .  S
O1100      C1110   1.278   1_554  A
O1101     Cu2555   2.013       .  S
O1101      C1111   1.277       .  A
O1102     Cu1107   2.006       .  S
O1102      C1112   1.278   1_554  A
O1103     Cu1108   2.008       .  S
O1103      C1112   1.276       .  A
O1104     Cu2556   2.002       .  S
O1104      C1111   1.278   1_556  A
O1105     Cu2556   2.015       .  S
O1105      C1110   1.277       .  A
O1106     Cu1108   2.009       .  S
O1106      C1109   1.278   1_556  A
Cu1107     O2548   2.004   1_455  S
Cu1107     O2549   2.013   1_455  S
Cu1107    Cu1108   2.376   1_554  S
Cu1108     O2552   2.002   1_455  S
Cu1108     O2553   2.015   1_455  S
C1109      C1188   1.469       .  S
C1110      C1212   1.469       .  S
C1111      C1140   1.468       .  S
C1112      C1164   1.467       .  S
O1113     Cu1845   2.013   1_565  S
O1113      C1123   1.277       .  A
O1114     Cu1121   2.006       .  S
O1114      C1124   1.278   1_556  A
O1115      C1125   1.277       .  A
O1116     Cu2569   2.009       .  S
O1116      C1126   1.279   1_556  A
O1117     Cu1846   2.012       .  S
O1117      C1126   1.277       .  A
O1118     Cu1122   2.004       .  S
O1118      C1125   1.278   1_554  A
O1119      C1124   1.277       .  A
O1120     Cu2570   2.004       .  S
O1120      C1123   1.278   1_554  A
Cu1121     O1837   2.013   1_455  S
Cu1121     O2564   2.009   1_455  S
Cu1122     O1841   2.012   1_465  S
Cu1122     O2568   2.004   1_455  S
C1123      C1202   1.468       .  S
C1124      C1178   1.468       .  S
C1125      C1154   1.469       .  S
C1126      C1130   1.469       .  S
N1127      N1128   1.321       .  A
N1127      C1131   1.349       .  A
N1127     Cu1135   2.082       .  S
N1128      C1129   1.341       .  A
N1128     Cu1134   2.055       .  S
C1129      C1130   1.379       .  A
C1129      H1132   1.082       .  S
C1130      C1131   1.388       .  A
C1131      H1133   1.082       .  S
Cu1134     N1137   2.055       .  S
Cu1135     N1145   2.084       .  S
Cu1136     N1138   2.077       .  S
Cu1136     N1144   2.079       .  S
N1137      N1138   1.321       .  A
N1137      C1141   1.340       .  A
N1138      C1139   1.348       .  A
C1139      C1140   1.387       .  A
C1139      H1142   1.082       .  S
C1140      C1141   1.379       .  A
C1141      H1143   1.082       .  S
N1144      N1145   1.325       .  A
N1144      C1148   1.345       .  A
N1145      C1146   1.347       .  A
C1146      C1147   1.382       .  A
C1146      H1149   1.082       .  S
C1147      C1268   1.473       .  S
C1147      C1148   1.380       .  A
C1148      H1150   1.082       .  S
N1151      N1152   1.321       .  A
N1151      C1155   1.349       .  A
N1151     Cu1159   2.080       .  S
N1152      C1153   1.340       .  A
N1152     Cu1158   2.055       .  S
C1153      C1154   1.379       .  A
C1153      H1156   1.082   1_556  S
C1154      C1155   1.388       .  A
C1155      H1157   1.082       .  S
Cu1158     N1161   2.055       .  S
Cu1159     N1169   2.082       .  S
Cu1160     N1162   2.076       .  S
Cu1160     N1168   2.077       .  S
N1161      N1162   1.321       .  A
N1161      C1165   1.341       .  A
N1162      C1163   1.348       .  A
C1163      C1164   1.386       .  A
C1163      H1166   1.082       .  S
C1164      C1165   1.379       .  A
C1165      H1167   1.082   1_556  S
N1168      N1169   1.323       .  A
N1168      C1172   1.345       .  A
N1169      C1170   1.344       .  A
C1170      C1171   1.388       .  A
C1170      H1173   1.081       .  S
C1171      C1254   1.488       .  S
C1171      C1172   1.386       .  A
C1172      H1174   1.082       .  S
N1175      N1176   1.321       .  A
N1175      C1179   1.348       .  A
N1175     Cu1183   2.077       .  S
N1176      C1177   1.341       .  A
N1176     Cu1182   2.055       .  S
C1177      C1178   1.379       .  A
C1177      H1180   1.082   1_554  S
C1178      C1179   1.387       .  A
C1179      H1181   1.082       .  S
Cu1182     N1185   2.056       .  S
Cu1183     N1193   2.078       .  S
Cu1184     N1186   2.081       .  S
Cu1184     N1192   2.082       .  S
N1185      N1186   1.321       .  A
N1185      C1189   1.341       .  A
N1186      C1187   1.348       .  A
C1187      C1188   1.387       .  A
C1187      H1190   1.082       .  S
C1188      C1189   1.379       .  A
C1189      H1191   1.082   1_554  S
N1192      N1193   1.324       .  A
N1192      C1196   1.346       .  A
N1193      C1194   1.344       .  A
C1194      C1195   1.385       .  A
C1194      H1197   1.082       .  S
C1195      C1240   1.484       .  S
C1195      C1196   1.386       .  A
C1196      H1198   1.082       .  S
N1199      N1200   1.321       .  A
N1199      C1203   1.349       .  A
N1199     Cu1207   2.080       .  S
N1200      C1201   1.340       .  A
N1200     Cu1206   2.055       .  S
C1201      C1202   1.378       .  A
C1201      H1204   1.082   1_556  S
C1202      C1203   1.387       .  A
C1203      H1205   1.082       .  S
Cu1206     N1209   2.055       .  S
Cu1207     N1217   2.081       .  S
Cu1208     N1210   2.077       .  S
Cu1208     N1216   2.080       .  S
N1209      N1210   1.320       .  A
N1209      C1213   1.340       .  A
N1210      C1211   1.349       .  A
C1211      C1212   1.387       .  A
C1211      H1214   1.082       .  S
C1212      C1213   1.379       .  A
C1213      H1215   1.082   1_556  S
N1216      N1217   1.323       .  A
N1216      C1220   1.344       .  A
N1217      C1218   1.346       .  A
C1218      C1219   1.387       .  A
C1218      H1221   1.082       .  S
C1219      C1226   1.488       .  S
C1219      C1220   1.387       .  A
C1220      H1222   1.081       .  S
C1223      C1243   1.572       .  S
C1223      C1271   1.569       .  S
C1223      C1285   1.567       .  S
C1223      C1313   1.565       .  S
C1224      C1229   1.564       .  S
C1224      C1257   1.573       .  S
C1224      C1397   1.569       .  S
C1224      C1411   1.571       .  S
C1225      C1226   1.403       .  A
C1225      C1230   1.405       .  A
C1225      H1232   1.083       .  S
C1226      C1227   1.407       .  A
C1227      C1228   1.400       .  A
C1227      N1234   1.432       .  S
C1228      C1229   1.416       .  A
C1228      H1233   1.077       .  S
C1229      C1230   1.424       .  A
C1230      N1231   1.433       .  S
N1231      H1235   1.045       .  S
N1231      H1236   1.046       .  S
N1234      H1237   1.046       .  S
N1234      H1238   1.046       .  S
C1239      C1240   1.401       .  A
C1239      C1244   1.403       .  A
C1239      H1246   1.084       .  S
C1240      C1241   1.415       .  A
C1241      C1242   1.402       .  A
C1241      N1248   1.441       .  S
C1242      C1243   1.418       .  A
C1242      H1247   1.079       .  S
C1243      C1244   1.424       .  A
C1244      N1245   1.433       .  S
N1245      H1249   1.046       .  S
N1245      H1250   1.046       .  S
N1248      H1251   1.042       .  S
N1248      H1252   1.046       .  S
C1253      C1254   1.402       .  A
C1253      C1258   1.404       .  A
C1253      H1260   1.083       .  S
C1254      C1255   1.409       .  A
C1255      C1256   1.404       .  A
C1255      N1262   1.438       .  S
C1256      C1257   1.419       .  A
C1256      H1261   1.077       .  S
C1257      C1258   1.424       .  A
C1258      N1259   1.433       .  S
N1259      H1263   1.046       .  S
N1259      H1264   1.046       .  S
N1262      H1265   1.046       .  S
N1262      H1266   1.046       .  S
C1267      C1268   1.395       .  A
C1267      C1272   1.402       .  A
C1267      H1274   1.084       .  S
C1268      C1269   1.412       .  A
C1269      C1270   1.402       .  A
C1269      N1276   1.439       .  S
C1270      C1271   1.417       .  A
C1270      H1275   1.080       .  S
C1271      C1272   1.426       .  A
C1272      N1273   1.430       .  S
N1273      H1277   1.046       .  S
N1273      H1278   1.046       .  S
N1276      H1279   1.043       .  S
N1276      H1280   1.046       .  S
C1281      C1282   1.397       .  A
C1281      C1286   1.404       .  A
C1281      H1288   1.085       .  S
C1282      C1283   1.408       .  A
C1283      C1284   1.400       .  A
C1283      N1290   1.439       .  S
C1284      C1285   1.419       .  A
C1284      H1289   1.084       .  S
C1285      C1286   1.429       .  A
C1286      N1287   1.432       .  S
N1287      H1291   1.046       .  S
N1287      H1292   1.045       .  S
N1290      H1294   1.046       .  S
C1295      C2744   1.398       .  A
C1295      C1300   1.406       .  A
C1295      H1302   1.084       .  S
C1296      C2743   1.398       .  A
C1296      C1297   1.409   1_655  A
C1297      C1298   1.400       .  A
C1297      N1304   1.439       .  S
C1298      C1299   1.418   1_455  A
C1298      H1303   1.080       .  S
C1299      C2748   1.429       .  A
C1300      C2747   1.429       .  A
C1300      N1301   1.432       .  S
N1301      H1305   1.046       .  S
N1301      H1306   1.046       .  S
N1304      H1307   1.043       .  S
N1304      H1308   1.046       .  S
C1309      C1310   1.400       .  A
C1309      C1314   1.402       .  A
C1309      H1316   1.083       .  S
C1310      C1311   1.408       .  A
C1311      C1312   1.406       .  A
C1311      N1318   1.438       .  S
C1312      C1313   1.417       .  A
C1312      H1317   1.078       .  S
C1313      C1314   1.425       .  A
C1314      N1315   1.433       .  S
N1315      H1319   1.046       .  S
N1315      H1320   1.045       .  S
N1318      H1321   1.046       .  S
N1318      H1322   1.046       .  S
C1323      C2772   1.397       .  A
C1323      C1328   1.403       .  A
C1323      H1330   1.085       .  S
C1324      C2771   1.397   1_455  A
C1324      C1325   1.409       .  A
C1325      C1326   1.397       .  A
C1325      N1332   1.432       .  S
C1326      C1327   1.419       .  A
C1326      H1331   1.082       .  S
C1327      C2776   1.445   1_455  A
C1328      C2775   1.445       .  A
C1328      N1329   1.438       .  S
N1329      H1333   1.045       .  S
N1329      H1334   1.033       .  S
N1332      H1335   1.045       .  S
N1332      H1336   1.043       .  S
C1337      C1338   1.399       .  A
C1337      C1342   1.404       .  A
C1337      H1344   1.084       .  S
C1338      C1339   1.409       .  A
C1339      C1340   1.400       .  A
C1339      N1346   1.439       .  S
C1340      C1341   1.416       .  A
C1340      H1345   1.079       .  S
C1341      C1342   1.426       .  A
C1341      C2546   1.557       .  S
C1342      N2791   1.432       .  S
N1343      C2790   1.432       .  S
N1343      H1347   1.046   1_655  S
N1343      H1348   1.046       .  S
N1346      H1349   1.043       .  S
N1346      H1350   1.046       .  S
C1351      C1352   1.421       .  A
C1351      C1356   1.403       .  A
C1351      H1358   1.080       .  S
C1352      C1353   1.423       .  A
C1353      C1354   1.402       .  A
C1353      N2808   1.427       .  S
C1354      C1355   1.399       .  A
C1354      H1359   1.084       .  S
C1355      C1356   1.412       .  A
C1356      N1357   1.440       .  S
N1357      H1361   1.046       .  S
N1357      H1362   1.042       .  S
N1360      C2801   1.427       .  S
N1360      H1363   1.046       .  S
N1360      H1364   1.046       .  S
C1365      C1366   1.398       .  A
C1365      C1370   1.407       .  A
C1365      H1372   1.084       .  S
C1366      C1367   1.408       .  A
C1367      C1368   1.404       .  A
C1367      N1374   1.438       .  S
C1368      C1369   1.416       .  A
C1368      H1373   1.081       .  S
C1369      C1370   1.435       .  A
C1370      N1371   1.438       .  S
N1371      H1375   1.046       .  S
N1371      H1376   1.042       .  S
N1374      H1377   1.046       .  S
N1374      H1378   1.046       .  S
C1379      C1380   1.416       .  A
C1379      C1384   1.401       .  A
C1379      H1386   1.079       .  S
C1380      C1381   1.426       .  A
C1380      C2297   1.563       .  S
C1381      C1382   1.402       .  A
C1381      N1388   1.432       .  S
C1382      C1383   1.395       .  A
C1382      H1387   1.084       .  S
C1383      C1384   1.413       .  A
C1384      N1385   1.439       .  S
N1385      H1389   1.046       .  S
N1385      H1390   1.043       .  S
N1388      H1391   1.046       .  S
N1388      H1392   1.046       .  S
C1393      C1394   1.402       .  A
C1393      C1398   1.404       .  A
C1393      H1400   1.083       .  S
C1394      C1395   1.415       .  A
C1395      C1396   1.397       .  A
C1395      N1402   1.431       .  S
C1396      C1397   1.416       .  A
C1396      H1401   1.084       .  S
C1397      C1398   1.428       .  A
C1398      N1399   1.432       .  S
N1399      H1403   1.046       .  S
N1399      H1404   1.046       .  S
N1402      H1405   1.045       .  S
N1402      H1406   1.042       .  S
C1407      C1408   1.401       .  A
C1407      C1412   1.403       .  A
C1407      H1414   1.083       .  S
C1408      C1409   1.408       .  A
C1409      C1410   1.402       .  A
C1409      N1416   1.432       .  S
C1410      C1411   1.416       .  A
C1410      H1415   1.078       .  S
C1411      C1412   1.425       .  A
C1412      N1413   1.432       .  S
N1413      H1417   1.046       .  S
N1413      H1418   1.046       .  S
N1416      H1419   1.046       .  S
N1416      H1420   1.046       .  S
C1421      C1422   1.393       .  A
C1421      C1426   1.402       .  A
C1421      H1428   1.084       .  S
C1422      C2871   1.404       .  A
C1423      C2870   1.404       .  A
C1423      C1424   1.405       .  A
C1423      N1430   1.438       .  S
C1424      C2873   1.417       .  A
C1424      H1429   1.078       .  S
C1425      C2872   1.417       .  A
C1425      C1426   1.428       .  A
C1426      N1427   1.432   1_655  S
N1427      H1431   1.046       .  S
N1427      H1432   1.046   1_455  S
N1430      H1433   1.046       .  S
N1430      H1434   1.046       .  S
C1435      C2884   1.397       .  A
C1435      C1440   1.404       .  A
C1435      H1442   1.084       .  S
C1436      C2883   1.397   1_455  A
C1436      C1437   1.411       .  A
C1437      C1438   1.397       .  A
C1437      N1444   1.432       .  S
C1438      C1439   1.414       .  A
C1438      H1443   1.078       .  S
C1439      C2888   1.432   1_455  A
C1440      C2887   1.432       .  A
C1440      N1441   1.432       .  S
N1441      H1445   1.046       .  S
N1441      H1446   1.046       .  S
N1444      H1447   1.043       .  S
N1444      H1448   1.045       .  S
O1449     Cu1457   2.009       .  S
O1449      C1459   1.277       .  A
O1450     Cu1457   2.004       .  S
O1450      C1460   1.278       .  A
O1451     Cu1457   2.013       .  S
O1451      C1461   1.277       .  A
O1452     Cu1457   2.006       .  S
O1452      C1462   1.278       .  A
O1453     Cu1458   2.009       .  S
O1453      C1462   1.277       .  A
O1454     Cu1458   2.004       .  S
O1454      C1461   1.278       .  A
O1455     Cu1458   2.010       .  S
O1455      C1460   1.277       .  A
O1456     Cu1458   2.004       .  S
O1456      C1459   1.278       .  A
Cu1457    Cu1458   2.376       .  S
C1459      C1538   1.467       .  S
C1460      C1504   1.467       .  S
C1461      C1562   1.468       .  S
C1462      C1480   1.467       .  S
O1463     Cu1471   2.011       .  S
O1463      C1473   1.277       .  A
O1464     Cu1471   2.004       .  S
O1464      C1474   1.278       .  A
O1465     Cu1471   2.010       .  S
O1465      C1475   1.277       .  A
O1466     Cu1471   2.002       .  S
O1466      C1476   1.278       .  A
O1467     Cu1472   2.012       .  S
O1467      C1476   1.277       .  A
O1468     Cu1472   2.006       .  S
O1468      C1475   1.278       .  A
O1469     Cu1472   2.014       .  S
O1469      C1474   1.277       .  A
O1470     Cu1472   2.006       .  S
O1470      C1473   1.278       .  A
Cu1471    Cu1472   2.376       .  S
C1473      C1514   1.468       .  S
C1474      C1528   1.469       .  S
C1475      C1490   1.468       .  S
C1476      C1552   1.467       .  S
N1477      N1478   1.321       .  A
N1477      C1481   1.348       .  A
N1477     Cu1485   2.076       .  S
N1478      C1479   1.341       .  A
N1478     Cu1484   2.055       .  S
C1479      C1480   1.379       .  A
C1479      H1482   1.082       .  S
C1480      C1481   1.386       .  A
C1481      H1483   1.082       .  S
Cu1485     N1495   2.078       .  S
Cu1486     N1488   2.077       .  S
Cu1486     N1494   2.079       .  S
N1487      N1488   1.321       .  A
N1487      C1491   1.341       .  A
N1488      C1489   1.348       .  A
C1489      C1490   1.387       .  A
C1489      H1492   1.082       .  S
C1490      C1491   1.379       .  A
C1491      H1493   1.082       .  S
N1494      C1498   1.344       .  A
N1495      C1496   1.345       .  A
C1496      C1497   1.385       .  A
C1496      H1499   1.080       .  S
C1497      C2160   1.482       .  S
C1498      H1500   1.082       .  S
N1501      N1502   1.321       .  A
N1501      C1505   1.348       .  A
N1501     Cu1509   2.077       .  S
N1502      C1503   1.340       .  A
N1502     Cu1508   2.055       .  S
C1503      C1504   1.379       .  A
C1503      H1506   1.082       .  S
C1504      C1505   1.387       .  A
C1505      H1507   1.082       .  S
Cu1509     N2243   2.078       .  S
Cu1510     N1512   2.077       .  S
Cu1510     N2242   2.078       .  S
N1511      N1512   1.321       .  A
N1511      C1515   1.341       .  A
N1512      C1513   1.348       .  A
C1513      C1514   1.387       .  A
C1513      H1516   1.082       .  S
C1514      C1515   1.379       .  A
C1515      H1517   1.082       .  S
N1518      C1522   1.346       .  A
N1518     Cu2234   2.078       .  S
N1519      C1520   1.345       .  A
N1519     Cu2233   2.078       .  S
C1520      C1521   1.380       .  A
C1520      H1523   1.082       .  S
C1521      C2146   1.470       .  S
C1522      H1524   1.082       .  S
N1525      N1526   1.321       .  A
N1525      C1529   1.349       .  A
N1525     Cu1533   2.083       .  S
N1526      C1527   1.340       .  A
N1526     Cu1532   2.054       .  S
C1527      C1528   1.378       .  A
C1527      H1530   1.082       .  S
C1528      C1529   1.388       .  A
C1529      H1531   1.082       .  S
Cu1532     N1535   2.055       .  S
Cu1533     N1543   2.084       .  S
Cu1534     N1536   2.072       .  S
Cu1534     N1542   2.073       .  S
N1535      N1536   1.320       .  A
N1535      C1539   1.341       .  A
N1536      C1537   1.347       .  A
C1537      C1538   1.386       .  A
C1537      H1540   1.082       .  S
C1538      C1539   1.379       .  A
C1539      H1541   1.082       .  S
N1542      N1543   1.323       .  A
N1542      C1546   1.343       .  A
N1543      C1544   1.346       .  A
C1544      C1545   1.388       .  A
C1544      H1547   1.082       .  S
C1545      C2132   1.488       .  S
C1545      C1546   1.386       .  A
C1546      H1548   1.081       .  S
N1549      N1550   1.320       .  A
N1549      C1553   1.348       .  A
N1549     Cu1557   2.072       .  S
N1550      C1551   1.340       .  A
N1550     Cu1556   2.054       .  S
C1551      C1552   1.379       .  A
C1551      H1554   1.082       .  S
C1552      C1553   1.386       .  A
C1553      H1555   1.082       .  S
Cu1556     N1559   2.054       .  S
Cu1557     N2291   2.075   1_545  S
Cu1558     N1560   2.082       .  S
Cu1558     N2290   2.083   1_545  S
N1559      N1560   1.321       .  A
N1559      C1563   1.340       .  A
N1560      C1561   1.349       .  A
C1561      C1562   1.388       .  A
C1561      H1564   1.082       .  S
C1562      C1563   1.378       .  A
C1563      H1565   1.082       .  S
N1566      N1567   1.322       .  A
N1566      C1570   1.345       .  A
N1566     Cu2282   2.083       .  S
N1567      C1568   1.343       .  A
N1567     Cu2281   2.075       .  S
C1568      C1569   1.387       .  A
C1568      H1571   1.082       .  S
C1569      C2118   1.491       .  S
C1569      C1570   1.390       .  A
C1570      H1572   1.078       .  S
C1573      C2093   1.571       .  S
C1573      C2149   1.564       .  S
C1573      C2163   1.571       .  S
O1574     Cu2306   2.013   1_545  S
O1574      C1584   1.277       .  A
O1575     Cu1582   2.006       .  S
O1575      C1585   1.278       .  A
O1576     Cu2306   2.011   1_545  S
O1576      C1586   1.277       .  A
O1577     Cu1582   2.006       .  S
O1577      C1587   1.278       .  A
O1578     Cu2307   2.010       .  S
O1578      C1587   1.277       .  A
O1579     Cu1583   2.005       .  S
O1579      C1586   1.278       .  A
O1580     Cu2307   2.013       .  S
O1580      C1585   1.277       .  A
O1581     Cu1583   2.007       .  S
O1581      C1584   1.278       .  A
Cu1582     O2298   2.013       .  S
Cu1582     O2300   2.011       .  S
Cu1582    Cu2307   2.376       .  S
Cu1583     O2302   2.010   1_545  S
Cu1583     O2304   2.013   1_545  S
Cu1583    Cu2306   2.376   1_545  S
C1584      C1639   1.469       .  S
C1585      C1653   1.469       .  S
C1586      C1615   1.468       .  S
C1587      C1677   1.468       .  S
O1588     Cu1596   2.010       .  S
O1588      C1598   1.277       .  A
O1589     Cu1596   2.005       .  S
O1589      C1599   1.278       .  A
O1590     Cu1596   2.014       .  S
O1590      C1600   1.277       .  A
O1591     Cu1596   2.008       .  S
O1591      C1601   1.278       .  A
O1592     Cu1597   2.012       .  S
O1592      C1601   1.277       .  A
O1593     Cu1597   2.004       .  S
O1593      C1600   1.278       .  A
O1594     Cu1597   2.010       .  S
O1594      C1599   1.277       .  A
O1595     Cu1597   2.004       .  S
O1595      C1598   1.278       .  A
Cu1596    Cu1597   2.376       .  S
C1598      C1663   1.467       .  S
C1599      C1629   1.467       .  S
C1600      C1687   1.469       .  S
C1601      C1605   1.469       .  S
N1602      N1603   1.321       .  A
N1602      C1606   1.349       .  A
N1602     Cu1610   2.083       .  S
N1603      C1604   1.341       .  A
N1603     Cu1609   2.055       .  S
C1604      C1605   1.379       .  A
C1604      H1607   1.082       .  S
C1605      C1606   1.388       .  A
C1606      H1608   1.082       .  S
Cu1609     N1612   2.055       .  S
Cu1610     N1620   2.084       .  S
Cu1611     N1613   2.076       .  S
Cu1611     N1619   2.078       .  S
N1612      N1613   1.321       .  A
N1612      C1616   1.341       .  A
N1613      C1614   1.348       .  A
C1614      C1615   1.387       .  A
C1614      H1617   1.082       .  S
C1615      C1616   1.379       .  A
C1616      H1618   1.082       .  S
N1619      N1620   1.324       .  A
N1619      C1623   1.344       .  A
N1620      C1621   1.346       .  A
C1621      C1622   1.386       .  A
C1621      H1624   1.082       .  S
C1622      C2079   1.482       .  S
C1622      C1623   1.384       .  A
C1623      H1625   1.082       .  S
N1626      N1627   1.320       .  A
N1626      C1630   1.347       .  A
N1626     Cu1634   2.073       .  S
N1627      C1628   1.341       .  A
N1627     Cu1633   2.055       .  S
C1628      C1629   1.379       .  A
C1628      H1631   1.082       .  S
C1629      C1630   1.386       .  A
C1630      H1632   1.082       .  S
Cu1633     N1636   2.055       .  S
Cu1634     N1644   2.075       .  S
Cu1635     N1637   2.084       .  S
Cu1635     N1643   2.085       .  S
N1636      N1637   1.321       .  A
N1636      C1640   1.340       .  A
N1637      C1638   1.349       .  A
C1638      C1639   1.388       .  A
C1638      H1641   1.082       .  S
C1639      C1640   1.378       .  A
C1640      H1642   1.082       .  S
N1643      N1644   1.325       .  A
N1643      C1647   1.346       .  A
N1644      C1645   1.345       .  A
C1645      C1646   1.380       .  A
C1645      H1648   1.082       .  S
C1646      C2062   1.474       .  S
C1646      C1647   1.383       .  A
C1647      H1649   1.082       .  S
N1650      N1651   1.321       .  A
N1650      C1654   1.349       .  A
N1650     Cu1658   2.080       .  S
N1651      C1652   1.340       .  A
N1651     Cu1657   2.055       .  S
C1652      C1653   1.379       .  A
C1652      H1655   1.082       .  S
C1653      C1654   1.387       .  A
C1654      H1656   1.082       .  S
Cu1657     N1660   2.055       .  S
Cu1658     N1668   2.081       .  S
Cu1659     N1661   2.076       .  S
Cu1659     N1667   2.077       .  S
N1660      N1661   1.321       .  A
N1660      C1664   1.341       .  A
N1661      C1662   1.348       .  A
C1662      C1663   1.387       .  A
C1662      H1665   1.082       .  S
C1663      C1664   1.379       .  A
C1664      H1666   1.082       .  S
N1667      N1668   1.324       .  A
N1667      C1671   1.345       .  A
N1668      C1669   1.345       .  A
C1669      C1670   1.385       .  A
C1669      H1672   1.082       .  S
C1670      C2090   1.484       .  S
C1670      C1671   1.385       .  A
C1671      H1673   1.081       .  S
N1674      N1675   1.321       .  A
N1674      C1678   1.348       .  A
N1674     Cu1682   2.076       .  S
N1675      C1676   1.341       .  A
N1675     Cu1681   2.055       .  S
C1676      C1677   1.379       .  A
C1676      H1679   1.082       .  S
C1677      C1678   1.387       .  A
C1678      H1680   1.082       .  S
Cu1681     N1684   2.055       .  S
Cu1682     N1692   2.078       .  S
Cu1683     N1685   2.080       .  S
Cu1683     N1691   2.082       .  S
N1684      N1685   1.321       .  A
N1684      C1688   1.340       .  A
N1685      C1686   1.349       .  A
C1686      C1687   1.387       .  A
C1686      H1689   1.082       .  S
C1687      C1688   1.379       .  A
C1688      H1690   1.082       .  S
N1691      N1692   1.325       .  A
N1691      C1695   1.345       .  A
N1692      C1693   1.345       .  A
C1693      C1694   1.381       .  A
C1693      H1696   1.082       .  S
C1694      C2107   1.472       .  S
C1694      C1695   1.381       .  A
C1695      H1697   1.082       .  S
O1698     Cu1706   2.016       .  S
O1698      C1708   1.277       .  A
O1699     Cu1706   2.008       .  S
O1699      C1709   1.278       .  A
O1700     Cu1706   2.013       .  S
O1700      C1710   1.277       .  A
O1701     Cu1706   2.006       .  S
O1701      C1711   1.278       .  A
O1702     Cu1707   2.012       .  S
O1702      C1711   1.277       .  A
O1703     Cu1707   2.006       .  S
O1703      C1710   1.278       .  A
O1704     Cu1707   2.010       .  S
O1704      C1709   1.277       .  A
O1705     Cu1707   2.004       .  S
O1705      C1708   1.278       .  A
Cu1706    Cu1707   2.376       .  S
C1708      C1729   1.469       .  S
C1709      C1753   1.469       .  S
C1710      C1777   1.469       .  S
C1711      C1801   1.468       .  S
O1712     Cu1720   2.012       .  S
O1712      C1722   1.277       .  A
O1713     Cu1720   2.006       .  S
O1713      C1723   1.278       .  A
O1714     Cu1720   2.012       .  S
O1714      C1724   1.277       .  A
O1715     Cu1720   2.006       .  S
O1715      C1725   1.278       .  A
O1716     Cu1721   2.014       .  S
O1716      C1725   1.277       .  A
O1717     Cu1721   2.007       .  S
O1717      C1724   1.278       .  A
O1718     Cu1721   2.012       .  S
O1718      C1723   1.277       .  A
O1719     Cu1721   2.007       .  S
O1719      C1722   1.278       .  A
Cu1720    Cu1721   2.376       .  S
C1722      C1763   1.469       .  S
C1723      C1739   1.469       .  S
C1724      C1811   1.469       .  S
C1725      C1787   1.470       .  S
N1726      N1727   1.321       .  A
N1726      C1730   1.349       .  A
N1726     Cu1734   2.081       .  S
N1727      C1728   1.340       .  A
C1728      C1729   1.379       .  A
C1728      H1731   1.082       .  S
C1729      C1730   1.388       .  A
C1730      H1732   1.082       .  S
Cu1733     N1736   2.055       .  S
Cu1734     N2468   2.083       .  S
Cu1735     N1737   2.080       .  S
Cu1735     N2467   2.082       .  S
N1736      N1737   1.321       .  A
N1736      C1740   1.341       .  A
N1737      C1738   1.349       .  A
C1738      C1739   1.387       .  A
C1738      H1741   1.082       .  S
C1739      C1740   1.379       .  A
C1740      H1742   1.082       .  S
N1743      C1747   1.346   1_565  A
N1743     Cu2459   2.082       .  S
N1744      C1745   1.345       .  A
N1744     Cu2458   2.083   1_545  S
C1745      H1748   1.082       .  S
C1746      C2048   1.486       .  S
C1746      C1747   1.387       .  A
C1747      H1749   1.079       .  S
N1750      N1751   1.321       .  A
N1750      C1754   1.348       .  A
N1750     Cu1758   2.079       .  S
N1751      C1752   1.341       .  A
N1751     Cu1757   2.056       .  S
C1752      C1753   1.379       .  A
C1752      H1755   1.082       .  S
C1753      C1754   1.387       .  A
C1754      H1756   1.082       .  S
Cu1757     N1760   2.055       .  S
Cu1758     N1768   2.081       .  S
Cu1759     N1761   2.080       .  S
Cu1759     N1767   2.081       .  S
N1760      N1761   1.321       .  A
N1760      C1764   1.341       .  A
N1761      C1762   1.348       .  A
C1762      C1763   1.387       .  A
C1762      H1765   1.082       .  S
C1763      C1764   1.379       .  A
C1764      H1766   1.082       .  S
N1767      N1768   1.324       .  A
N1767      C1771   1.345       .  A
N1768      C1769   1.345       .  A
C1769      C1770   1.386       .  A
C1769      H1772   1.082       .  S
C1770      C2034   1.486       .  S
C1770      C1771   1.386       .  A
C1771      H1773   1.082       .  S
N1774      N1775   1.320       .  A
N1774      C1778   1.349       .  A
N1774     Cu1782   2.078       .  S
N1775      C1776   1.341       .  A
C1776      C1777   1.379       .  A
C1776      H1779   1.082       .  S
C1777      C1778   1.387       .  A
C1778      H1780   1.082       .  S
Cu1781     N1784   2.054       .  S
Cu1782     N1792   2.080       .  S
Cu1783     N1785   2.084       .  S
Cu1783     N1791   2.086       .  S
N1784      N1785   1.321       .  A
N1784      C1788   1.340       .  A
N1785      C1786   1.349       .  A
C1786      C1787   1.388       .  A
C1786      H1789   1.082       .  S
C1787      C1788   1.378       .  A
C1788      H1790   1.082       .  S
N1791      C1795   1.346       .  A
N1792      C1793   1.346       .  A
C1793      H1796   1.082       .  S
C1794      C2020   1.476       .  S
C1794      C1795   1.383       .  A
C1795      H1797   1.082       .  S
N1798      N1799   1.320       .  A
N1798      C1802   1.348       .  A
N1798     Cu1806   2.077       .  S
N1799      C1800   1.341       .  A
N1799     Cu1805   2.055       .  S
C1800      C1801   1.379       .  A
C1800      H1803   1.082       .  S
C1801      C1802   1.387       .  A
C1802      H1804   1.082       .  S
Cu1805     N1808   2.055       .  S
Cu1806     N2540   2.079       .  S
Cu1807     N1809   2.082       .  S
Cu1807     N2539   2.083       .  S
N1808      N1809   1.321       .  A
N1808      C1812   1.340       .  A
N1809      C1810   1.349       .  A
C1810      C1811   1.388       .  A
C1810      H1813   1.082       .  S
C1811      C1812   1.379       .  A
C1812      H1814   1.082       .  S
N1815      N1816   1.325       .  A
N1815      C1819   1.346   1_565  A
N1815     Cu2531   2.083       .  S
N1816      C1817   1.345   1_565  A
N1816     Cu2530   2.079       .  S
C1817      C1818   1.380       .  A
C1817      H1820   1.082       .  S
C1818      C2006   1.473       .  S
C1818      C1819   1.382       .  A
C1819      H1821   1.082       .  S
C1822      C2023   1.572       .  S
C1822      C2051   1.573       .  S
C1822      C2076   1.574       .  S
O1823     Cu1831   2.010       .  S
O1823      C1833   1.277       .  A
O1824      C1834   1.278   1_554  A
O1825      C1835   1.277       .  A
O1826     Cu1831   2.006       .  S
O1826      C1836   1.278   1_554  A
O1827     Cu1832   2.008       .  S
O1827      C1836   1.276       .  A
O1828      C1835   1.278   1_556  A
O1829      C1834   1.277       .  A
O1830     Cu1832   2.009       .  S
O1830      C1833   1.278   1_556  A
Cu1831    Cu1832   2.376   1_554  S
C1833      C1912   1.469       .  S
C1834      C1936   1.469       .  S
C1835      C1864   1.468       .  S
C1836      C1888   1.467       .  S
O1837      C1847   1.277       .  A
O1838     Cu1845   2.006       .  S
O1838      C1848   1.278   1_556  A
O1839     Cu2569   2.016       .  S
O1839      C1849   1.277       .  A
O1840      C1850   1.279   1_556  A
O1841      C1850   1.277       .  A
O1842     Cu1846   2.004       .  S
O1842      C1849   1.278   1_554  A
O1843     Cu2570   2.011   1_545  S
O1843      C1848   1.277       .  A
O1844      C1847   1.278   1_554  A
Cu1845     O2563   2.016   1_545  S
Cu1845    Cu2570   2.376   1_546  S
Cu1846     O2567   2.011       .  S
Cu1846    Cu2569   2.376   1_554  S
C1847      C1926   1.468       .  S
C1848      C1902   1.468       .  S
C1849      C1878   1.469       .  S
C1850      C1854   1.469       .  S
N1851      N1852   1.321       .  A
N1851      C1855   1.349       .  A
N1851     Cu1859   2.082       .  S
N1852      C1853   1.341       .  A
N1852     Cu1858   2.055       .  S
C1853      C1854   1.379       .  A
C1853      H1856   1.082       .  S
C1854      C1855   1.388       .  A
C1855      H1857   1.082       .  S
Cu1858     N1861   2.055       .  S
Cu1859     N1869   2.084       .  S
Cu1860     N1862   2.077       .  S
Cu1860     N1868   2.079       .  S
N1861      N1862   1.321       .  A
N1861      C1865   1.340       .  A
N1862      C1863   1.348       .  A
C1863      C1864   1.387       .  A
C1863      H1866   1.082       .  S
C1864      C1865   1.379       .  A
C1865      H1867   1.082       .  S
N1868      N1869   1.325       .  A
N1868      C1872   1.345       .  A
N1869      C1870   1.347       .  A
C1870      C1871   1.382       .  A
C1870      H1873   1.082       .  S
C1871      C1992   1.473       .  S
C1871      C1872   1.380       .  A
C1872      H1874   1.082       .  S
N1875      N1876   1.321       .  A
N1875      C1879   1.349       .  A
N1875     Cu1883   2.080       .  S
N1876      C1877   1.340       .  A
N1876     Cu1882   2.055       .  S
C1877      C1878   1.379       .  A
C1877      H1880   1.082   1_556  S
C1878      C1879   1.388       .  A
C1879      H1881   1.082       .  S
Cu1882     N1885   2.055       .  S
Cu1883     N1893   2.082       .  S
Cu1884     N1886   2.076       .  S
Cu1884     N1892   2.077       .  S
N1885      N1886   1.321       .  A
N1885      C1889   1.341       .  A
N1886      C1887   1.348       .  A
C1887      C1888   1.386       .  A
C1887      H1890   1.082       .  S
C1888      C1889   1.379       .  A
C1889      H1891   1.082   1_556  S
N1892      N1893   1.323       .  A
N1892      C1896   1.345       .  A
N1893      C1894   1.344       .  A
C1894      C1895   1.388       .  A
C1894      H1897   1.081       .  S
C1895      C1978   1.488       .  S
C1895      C1896   1.386       .  A
C1896      H1898   1.082       .  S
N1899      N1900   1.321       .  A
N1899      C1903   1.348       .  A
N1899     Cu1907   2.077       .  S
N1900      C1901   1.341       .  A
N1900     Cu1906   2.055       .  S
C1901      C1902   1.379       .  A
C1901      H1904   1.082   1_554  S
C1902      C1903   1.387       .  A
C1903      H1905   1.082       .  S
Cu1906     N1909   2.056       .  S
Cu1907     N1917   2.078       .  S
Cu1908     N1910   2.081       .  S
Cu1908     N1916   2.082       .  S
N1909      N1910   1.321       .  A
N1909      C1913   1.341       .  A
N1910      C1911   1.348       .  A
C1911      C1912   1.387       .  A
C1911      H1914   1.082       .  S
C1912      C1913   1.379       .  A
C1913      H1915   1.082   1_554  S
N1916      N1917   1.324       .  A
N1916      C1920   1.346       .  A
N1917      C1918   1.344       .  A
C1918      C1919   1.385       .  A
C1918      H1921   1.082       .  S
C1919      C1964   1.484       .  S
C1919      C1920   1.386       .  A
C1920      H1922   1.082       .  S
N1923      N1924   1.321       .  A
N1923      C1927   1.349       .  A
N1923     Cu1931   2.080       .  S
N1924      C1925   1.340       .  A
N1924     Cu1930   2.055       .  S
C1925      C1926   1.378       .  A
C1925      H1928   1.082   1_556  S
C1926      C1927   1.387       .  A
C1927      H1929   1.082       .  S
Cu1930     N1933   2.055       .  S
Cu1931     N1941   2.081       .  S
Cu1932     N1934   2.077       .  S
Cu1932     N1940   2.080       .  S
N1933      N1934   1.320       .  A
N1933      C1937   1.340       .  A
N1934      C1935   1.349       .  A
C1935      C1936   1.387       .  A
C1935      H1938   1.082       .  S
C1936      C1937   1.379       .  A
C1937      H1939   1.082   1_556  S
N1940      N1941   1.323       .  A
N1940      C1944   1.344       .  A
N1941      C1942   1.346       .  A
C1942      C1943   1.387       .  A
C1942      H1945   1.082       .  S
C1943      C1950   1.488       .  S
C1943      C1944   1.387       .  A
C1944      H1946   1.081       .  S
C1947      C1967   1.572       .  S
C1947      C1995   1.569       .  S
C1947      C2009   1.567       .  S
C1947      C2037   1.565       .  S
C1948      C1953   1.564       .  S
C1948      C1981   1.573       .  S
C1948      C2121   1.569       .  S
C1948      C2135   1.571       .  S
C1949      C1950   1.403       .  A
C1949      C1954   1.405       .  A
C1949      H1956   1.083       .  S
C1950      C1951   1.407       .  A
C1951      C1952   1.400       .  A
C1951      N1958   1.432       .  S
C1952      C1953   1.416       .  A
C1952      H1957   1.077       .  S
C1953      C1954   1.424       .  A
C1954      N1955   1.433       .  S
N1955      H1959   1.045       .  S
N1955      H1960   1.046       .  S
N1958      H1961   1.046       .  S
N1958      H1962   1.046       .  S
C1963      C1964   1.401       .  A
C1963      C1968   1.403       .  A
C1963      H1970   1.084       .  S
C1964      C1965   1.415       .  A
C1965      C1966   1.402       .  A
C1965      N1972   1.441       .  S
C1966      C1967   1.418       .  A
C1966      H1971   1.079       .  S
C1967      C1968   1.424       .  A
C1968      N1969   1.433       .  S
N1969      H1973   1.046       .  S
N1969      H1974   1.046       .  S
N1972      H1975   1.042       .  S
N1972      H1976   1.046       .  S
C1977      C1978   1.402       .  A
C1977      C1982   1.404       .  A
C1977      H1984   1.083       .  S
C1978      C1979   1.409       .  A
C1979      C1980   1.404       .  A
C1979      N1986   1.438       .  S
C1980      C1981   1.419       .  A
C1980      H1985   1.077       .  S
C1981      C1982   1.424       .  A
C1982      N1983   1.433       .  S
N1983      H1987   1.046       .  S
N1983      H1988   1.046       .  S
N1986      H1989   1.046       .  S
N1986      H1990   1.046       .  S
C1991      C1992   1.395       .  A
C1991      C1996   1.402       .  A
C1991      H1998   1.084       .  S
C1992      C1993   1.412       .  A
C1993      C1994   1.402       .  A
C1993      N2000   1.439       .  S
C1994      C1995   1.417       .  A
C1994      H1999   1.080       .  S
C1995      C1996   1.426       .  A
C1996      N1997   1.430       .  S
N1997      H2001   1.046       .  S
N1997      H2002   1.046       .  S
N2000      H2003   1.043       .  S
N2000      H2004   1.046       .  S
C2005      C2006   1.397       .  A
C2005      C2010   1.404       .  A
C2005      H2012   1.085       .  S
C2006      C2007   1.408       .  A
C2007      C2008   1.400       .  A
C2007      N2014   1.439       .  S
C2008      C2009   1.419       .  A
C2008      H2013   1.084       .  S
C2009      C2010   1.429       .  A
C2010      N2011   1.432       .  S
N2011      H2015   1.046       .  S
N2011      H2016   1.045       .  S
N2014      H2741   1.043       .  S
N2014      H2018   1.046       .  S
H2017      N2738   1.043       .  S
C2019      C2024   1.406       .  A
C2019      H2026   1.084       .  S
C2020      C2021   1.409       .  A
C2021      C2022   1.400       .  A
C2021      N2028   1.439       .  S
C2022      C2023   1.418       .  A
C2022      H2027   1.080       .  S
C2024      N2025   1.432       .  S
N2025      H2029   1.046       .  S
N2025      H2030   1.046       .  S
N2028      H2031   1.043       .  S
N2028      H2032   1.046       .  S
C2033      C2034   1.400       .  A
C2033      C2038   1.402       .  A
C2033      H2040   1.083       .  S
C2034      C2035   1.408       .  A
C2035      C2036   1.406       .  A
C2035      N2042   1.438       .  S
C2036      C2037   1.417       .  A
C2036      H2041   1.078       .  S
C2037      C2038   1.425       .  A
C2038      N2039   1.433       .  S
N2039      H2043   1.046       .  S
N2039      H2044   1.045       .  S
N2042      H2045   1.046       .  S
N2042      H2046   1.046       .  S
C2047      C2052   1.403       .  A
C2047      H2054   1.085       .  S
C2048      C2049   1.409       .  A
C2049      C2050   1.397       .  A
C2049      N2056   1.432       .  S
C2050      C2051   1.419       .  A
C2050      H2055   1.082       .  S
C2052      N2053   1.438       .  S
N2053      H2057   1.045       .  S
N2053      H2058   1.033       .  S
N2056      H2059   1.045       .  S
N2056      H2060   1.043       .  S
C2061      C2062   1.399       .  A
C2061      C2066   1.404       .  A
C2061      H2068   1.084       .  S
C2062      C2063   1.409       .  A
C2063      C2064   1.400       .  A
C2063      N2070   1.439       .  S
C2064      C2065   1.416       .  A
C2064      H2069   1.079       .  S
C2065      C2066   1.426       .  A
N2067      H2071   1.046       .  S
N2067      H2072   1.046       .  S
N2070      H2073   1.043       .  S
N2070      H2074   1.046       .  S
C2075      C2076   1.421       .  A
C2075      C2080   1.403       .  A
C2075      H2082   1.080       .  S
C2076      C2077   1.423       .  A
C2077      C2078   1.402       .  A
C2078      C2079   1.399       .  A
C2078      H2083   1.084       .  S
C2079      C2080   1.412       .  A
C2080      N2081   1.440       .  S
N2081      H2085   1.046       .  S
N2081      H2086   1.042       .  S
N2084      H2087   1.046       .  S
N2084      H2088   1.046       .  S
C2089      C2090   1.398       .  A
C2089      C2094   1.407       .  A
C2089      H2096   1.084       .  S
C2090      C2091   1.408       .  A
C2091      C2092   1.404       .  A
C2091      N2098   1.438       .  S
C2092      C2093   1.416       .  A
C2092      H2097   1.081       .  S
C2093      C2094   1.435       .  A
C2094      N2095   1.438       .  S
N2095      H2099   1.046       .  S
N2095      H2100   1.042       .  S
N2098      H2101   1.046       .  S
N2098      H2102   1.046       .  S
C2103      C2104   1.416       .  A
C2103      C2108   1.401       .  A
C2103      H2110   1.079       .  S
C2104      C2105   1.426       .  A
C2105      C2106   1.402       .  A
C2105      N2112   1.432       .  S
C2106      C2107   1.395       .  A
C2106      H2111   1.084       .  S
C2107      C2108   1.413       .  A
C2108      N2109   1.439       .  S
N2109      H2113   1.046       .  S
N2109      H2114   1.043       .  S
N2112      H2115   1.046       .  S
N2112      H2116   1.046       .  S
C2117      C2118   1.402       .  A
C2117      C2122   1.404       .  A
C2117      H2124   1.083       .  S
C2118      C2119   1.415       .  A
C2119      C2120   1.397       .  A
C2119      N2126   1.431       .  S
C2120      C2121   1.416       .  A
C2120      H2125   1.084       .  S
C2121      C2122   1.428       .  A
C2122      N2123   1.432       .  S
N2123      H2127   1.046       .  S
N2123      H2128   1.046       .  S
N2126      H2129   1.045       .  S
N2126      H2130   1.042       .  S
C2131      C2132   1.401       .  A
C2131      C2136   1.403       .  A
C2131      H2138   1.083       .  S
C2132      C2133   1.408       .  A
C2133      C2134   1.402       .  A
C2133      N2140   1.432       .  S
C2134      C2135   1.416       .  A
C2134      H2139   1.078       .  S
C2135      C2136   1.425       .  A
C2136      N2137   1.432       .  S
N2137      H2141   1.046       .  S
N2137      H2142   1.046       .  S
N2140      H2143   1.046       .  S
N2140      H2144   1.046       .  S
C2145      C2146   1.393       .  A
C2145      C2150   1.402       .  A
C2145      H2152   1.084       .  S
C2147      C2148   1.405       .  A
C2147      N2154   1.438       .  S
C2148      H2153   1.078       .  S
C2149      C2150   1.428       .  A
C2150      N2151   1.432       .  S
N2151      H2155   1.046       .  S
N2151      H2156   1.046       .  S
N2154      H2157   1.046   1_655  S
N2154      H2158   1.046       .  S
C2159      C2164   1.404       .  A
C2159      H2166   1.084       .  S
C2160      C2161   1.411       .  A
C2161      C2162   1.397       .  A
C2161      N2168   1.432       .  S
C2162      C2163   1.414       .  A
C2162      H2167   1.078       .  S
C2164      N2165   1.432       .  S
N2165      H2169   1.046       .  S
N2165      H2170   1.046       .  S
N2168      H2171   1.043       .  S
N2168      H2172   1.045       .  S
O2173     Cu2181   2.009       .  S
O2173      C2183   1.277       .  A
O2174     Cu2181   2.004       .  S
O2174      C2184   1.278       .  A
O2175     Cu2181   2.013       .  S
O2175      C2185   1.277       .  A
O2176     Cu2181   2.006       .  S
O2176      C2186   1.278       .  A
O2177     Cu2182   2.009       .  S
O2177      C2186   1.277       .  A
O2178     Cu2182   2.004       .  S
O2178      C2185   1.278       .  A
O2179     Cu2182   2.010       .  S
O2179      C2184   1.277       .  A
O2180     Cu2182   2.004       .  S
O2180      C2183   1.278       .  A
Cu2181    Cu2182   2.376       .  S
C2183      C2262   1.467       .  S
C2184      C2228   1.467       .  S
C2185      C2286   1.468       .  S
C2186      C2204   1.467       .  S
O2187     Cu2195   2.011       .  S
O2187      C2197   1.277       .  A
O2188     Cu2195   2.004       .  S
O2188      C2198   1.278       .  A
O2189     Cu2195   2.010       .  S
O2189      C2199   1.277       .  A
O2190     Cu2195   2.002       .  S
O2190      C2200   1.278       .  A
O2191     Cu2196   2.012       .  S
O2191      C2200   1.277       .  A
O2192     Cu2196   2.006       .  S
O2192      C2199   1.278       .  A
O2193     Cu2196   2.014       .  S
O2193      C2198   1.277       .  A
O2194     Cu2196   2.006       .  S
O2194      C2197   1.278       .  A
Cu2195    Cu2196   2.376       .  S
C2197      C2238   1.468       .  S
C2198      C2252   1.469       .  S
C2199      C2214   1.468       .  S
C2200      C2276   1.467       .  S
N2201      N2202   1.321       .  A
N2201      C2205   1.348       .  A
N2201     Cu2209   2.076       .  S
N2202      C2203   1.341       .  A
N2202     Cu2208   2.055       .  S
C2203      C2204   1.379       .  A
C2203      H2206   1.082       .  S
C2204      C2205   1.386       .  A
C2205      H2207   1.082       .  S
Cu2209     N2219   2.078       .  S
Cu2210     N2212   2.077       .  S
Cu2210     N2218   2.079       .  S
N2211      N2212   1.321       .  A
N2211      C2215   1.341       .  A
N2212      C2213   1.348       .  A
C2213      C2214   1.387       .  A
C2213      H2216   1.082       .  S
C2214      C2215   1.379       .  A
C2215      H2217   1.082       .  S
N2218      C2222   1.344       .  A
N2219      C2220   1.345       .  A
C2220      C2221   1.385       .  A
C2220      H2223   1.080       .  S
C2221      C2884   1.482       .  S
C2222      H2224   1.082       .  S
N2225      N2226   1.321       .  A
N2225      C2229   1.348       .  A
N2225     Cu2233   2.077       .  S
N2226      C2227   1.340       .  A
N2226     Cu2232   2.055       .  S
C2227      C2228   1.379       .  A
C2227      H2230   1.082       .  S
C2228      C2229   1.387       .  A
C2229      H2231   1.082       .  S
Cu2234     N2236   2.077       .  S
N2235      N2236   1.321       .  A
N2235      C2239   1.341       .  A
N2236      C2237   1.348       .  A
C2237      C2238   1.387       .  A
C2237      H2240   1.082       .  S
C2238      C2239   1.379       .  A
C2239      H2241   1.082       .  S
N2242      C2246   1.346   1_545  A
N2243      C2244   1.345   1_545  A
C2244      C2245   1.380       .  A
C2244      H2247   1.082       .  S
C2245      C2870   1.470       .  S
C2246      H2248   1.082       .  S
N2249      N2250   1.321       .  A
N2249      C2253   1.349       .  A
N2249     Cu2257   2.083       .  S
N2250      C2251   1.340       .  A
N2250     Cu2256   2.054       .  S
C2251      C2252   1.378       .  A
C2251      H2254   1.082       .  S
C2252      C2253   1.388       .  A
C2253      H2255   1.082       .  S
Cu2256     N2259   2.055       .  S
Cu2257     N2267   2.084       .  S
Cu2258     N2260   2.072       .  S
Cu2258     N2266   2.073       .  S
N2259      N2260   1.320       .  A
N2259      C2263   1.341       .  A
N2260      C2261   1.347       .  A
C2261      C2262   1.386       .  A
C2261      H2264   1.082       .  S
C2262      C2263   1.379       .  A
C2263      H2265   1.082       .  S
N2266      N2267   1.323       .  A
N2266      C2270   1.343       .  A
N2267      C2268   1.346       .  A
C2268      C2269   1.388       .  A
C2268      H2271   1.082       .  S
C2269      C2856   1.488       .  S
C2269      C2270   1.386       .  A
C2270      H2272   1.081       .  S
N2273      N2274   1.320       .  A
N2273      C2277   1.348       .  A
N2273     Cu2281   2.072       .  S
N2274      C2275   1.340       .  A
N2274     Cu2280   2.054       .  S
C2275      C2276   1.379       .  A
C2275      H2278   1.082       .  S
C2276      C2277   1.386       .  A
C2277      H2279   1.082       .  S
Cu2280     N2283   2.054       .  S
Cu2282     N2284   2.082       .  S
N2283      N2284   1.321       .  A
N2283      C2287   1.340       .  A
N2284      C2285   1.349       .  A
C2285      C2286   1.388       .  A
C2285      H2288   1.082       .  S
C2286      C2287   1.378       .  A
C2287      H2289   1.082       .  S
N2290      N2291   1.322       .  A
N2290      C2294   1.345       .  A
N2291      C2292   1.343       .  A
C2292      C2293   1.387       .  A
C2292      H2295   1.082       .  S
C2293      C2842   1.491       .  S
C2293      C2294   1.390       .  A
C2294      H2296   1.078       .  S
C2297      C2817   1.571       .  S
C2297      C2873   1.564       .  S
C2297      C2887   1.571       .  S
O2298      C2308   1.277       .  A
O2299     Cu2306   2.006       .  S
O2299      C2309   1.278       .  A
O2300      C2310   1.277       .  A
O2301     Cu2306   2.006       .  S
O2301      C2311   1.278       .  A
O2302      C2311   1.277       .  A
O2303     Cu2307   2.005       .  S
O2303      C2310   1.278       .  A
O2304      C2309   1.277       .  A
O2305     Cu2307   2.007       .  S
O2305      C2308   1.278       .  A
C2308      C2363   1.469       .  S
C2309      C2377   1.469       .  S
C2310      C2339   1.468       .  S
C2311      C2401   1.468       .  S
O2312     Cu2320   2.010       .  S
O2312      C2322   1.277       .  A
O2313     Cu2320   2.005       .  S
O2313      C2323   1.278       .  A
O2314     Cu2320   2.014       .  S
O2314      C2324   1.277       .  A
O2315     Cu2320   2.008       .  S
O2315      C2325   1.278       .  A
O2316     Cu2321   2.012       .  S
O2316      C2325   1.277       .  A
O2317     Cu2321   2.004       .  S
O2317      C2324   1.278       .  A
O2318     Cu2321   2.010       .  S
O2318      C2323   1.277       .  A
O2319     Cu2321   2.004       .  S
O2319      C2322   1.278       .  A
Cu2320    Cu2321   2.376       .  S
C2322      C2387   1.467       .  S
C2323      C2353   1.467       .  S
C2324      C2411   1.469       .  S
C2325      C2329   1.469       .  S
N2326      N2327   1.321       .  A
N2326      C2330   1.349       .  A
N2326     Cu2334   2.083       .  S
N2327      C2328   1.341       .  A
N2327     Cu2333   2.055       .  S
C2328      C2329   1.379       .  A
C2328      H2331   1.082       .  S
C2329      C2330   1.388       .  A
C2330      H2332   1.082       .  S
Cu2333     N2336   2.055       .  S
Cu2334     N2344   2.084       .  S
Cu2335     N2337   2.076       .  S
Cu2335     N2343   2.078       .  S
N2336      N2337   1.321       .  A
N2336      C2340   1.341       .  A
N2337      C2338   1.348       .  A
C2338      C2339   1.387       .  A
C2338      H2341   1.082       .  S
C2339      C2340   1.379       .  A
C2340      H2342   1.082       .  S
N2343      N2344   1.324       .  A
N2343      C2347   1.344       .  A
N2344      C2345   1.346       .  A
C2345      C2346   1.386       .  A
C2345      H2348   1.082       .  S
C2346      C2803   1.482       .  S
C2346      C2347   1.384       .  A
C2347      H2349   1.082       .  S
N2350      N2351   1.320       .  A
N2350      C2354   1.347       .  A
N2350     Cu2358   2.073       .  S
N2351      C2352   1.341       .  A
N2351     Cu2357   2.055       .  S
C2352      C2353   1.379       .  A
C2352      H2355   1.082       .  S
C2353      C2354   1.386       .  A
C2354      H2356   1.082       .  S
Cu2357     N2360   2.055       .  S
Cu2358     N2368   2.075       .  S
Cu2359     N2361   2.084       .  S
Cu2359     N2367   2.085       .  S
N2360      N2361   1.321       .  A
N2360      C2364   1.340       .  A
N2361      C2362   1.349       .  A
C2362      C2363   1.388       .  A
C2362      H2365   1.082       .  S
C2363      C2364   1.378       .  A
C2364      H2366   1.082       .  S
N2367      N2368   1.325       .  A
N2367      C2371   1.346       .  A
N2368      C2369   1.345       .  A
C2369      C2370   1.380       .  A
C2369      H2372   1.082       .  S
C2370      C2786   1.474       .  S
C2370      C2371   1.383       .  A
C2371      H2373   1.082       .  S
N2374      N2375   1.321       .  A
N2374      C2378   1.349       .  A
N2374     Cu2382   2.080       .  S
N2375      C2376   1.340       .  A
N2375     Cu2381   2.055       .  S
C2376      C2377   1.379       .  A
C2376      H2379   1.082       .  S
C2377      C2378   1.387       .  A
C2378      H2380   1.082       .  S
Cu2381     N2384   2.055       .  S
Cu2382     N2392   2.081       .  S
Cu2383     N2385   2.076       .  S
Cu2383     N2391   2.077       .  S
N2384      N2385   1.321       .  A
N2384      C2388   1.341       .  A
N2385      C2386   1.348       .  A
C2386      C2387   1.387       .  A
C2386      H2389   1.082       .  S
C2387      C2388   1.379       .  A
C2388      H2390   1.082       .  S
N2391      N2392   1.324       .  A
N2391      C2395   1.345       .  A
N2392      C2393   1.345       .  A
C2393      C2394   1.385       .  A
C2393      H2396   1.082       .  S
C2394      C2814   1.484       .  S
C2394      C2395   1.385       .  A
C2395      H2397   1.081       .  S
N2398      N2399   1.321       .  A
N2398      C2402   1.348       .  A
N2398     Cu2406   2.076       .  S
N2399      C2400   1.341       .  A
N2399     Cu2405   2.055       .  S
C2400      C2401   1.379       .  A
C2400      H2403   1.082       .  S
C2401      C2402   1.387       .  A
C2402      H2404   1.082       .  S
Cu2405     N2408   2.055       .  S
Cu2406     N2416   2.078       .  S
Cu2407     N2409   2.080       .  S
Cu2407     N2415   2.082       .  S
N2408      N2409   1.321       .  A
N2408      C2412   1.340       .  A
N2409      C2410   1.349       .  A
C2410      C2411   1.387       .  A
C2410      H2413   1.082       .  S
C2411      C2412   1.379       .  A
C2412      H2414   1.082       .  S
N2415      N2416   1.325       .  A
N2415      C2419   1.345       .  A
N2416      C2417   1.345       .  A
C2417      C2418   1.381       .  A
C2417      H2420   1.082       .  S
C2418      C2831   1.472       .  S
C2418      C2419   1.381       .  A
C2419      H2421   1.082       .  S
O2422     Cu2430   2.016       .  S
O2422      C2432   1.277       .  A
O2423     Cu2430   2.008       .  S
O2423      C2433   1.278       .  A
O2424     Cu2430   2.013       .  S
O2424      C2434   1.277       .  A
O2425     Cu2430   2.006       .  S
O2425      C2435   1.278       .  A
O2426     Cu2431   2.012       .  S
O2426      C2435   1.277       .  A
O2427     Cu2431   2.006       .  S
O2427      C2434   1.278       .  A
O2428     Cu2431   2.010       .  S
O2428      C2433   1.277       .  A
O2429     Cu2431   2.004       .  S
O2429      C2432   1.278       .  A
Cu2430    Cu2431   2.376       .  S
C2432      C2453   1.469       .  S
C2433      C2477   1.469       .  S
C2434      C2501   1.469       .  S
C2435      C2525   1.468       .  S
O2436     Cu2444   2.012       .  S
O2436      C2446   1.277       .  A
O2437     Cu2444   2.006       .  S
O2437      C2447   1.278       .  A
O2438     Cu2444   2.012       .  S
O2438      C2448   1.277       .  A
O2439     Cu2444   2.006       .  S
O2439      C2449   1.278       .  A
O2440     Cu2445   2.014       .  S
O2440      C2449   1.277       .  A
O2441     Cu2445   2.007       .  S
O2441      C2448   1.278       .  A
O2442     Cu2445   2.012       .  S
O2442      C2447   1.277       .  A
O2443     Cu2445   2.007       .  S
O2443      C2446   1.278       .  A
Cu2444    Cu2445   2.376       .  S
C2446      C2487   1.469       .  S
C2447      C2463   1.469       .  S
C2448      C2535   1.469       .  S
C2449      C2511   1.470       .  S
N2450      N2451   1.321       .  A
N2450      C2454   1.349       .  A
N2450     Cu2458   2.081       .  S
N2451      C2452   1.340       .  A
C2452      C2453   1.379       .  A
C2452      H2455   1.082       .  S
C2453      C2454   1.388       .  A
C2454      H2456   1.082       .  S
Cu2457     N2460   2.055       .  S
Cu2459     N2461   2.080       .  S
N2460      N2461   1.321       .  A
N2460      C2464   1.341       .  A
N2461      C2462   1.349       .  A
C2462      C2463   1.387       .  A
C2462      H2465   1.082       .  S
C2463      C2464   1.379       .  A
C2464      H2466   1.082       .  S
N2467      C2471   1.346       .  A
N2468      C2469   1.345       .  A
C2469      H2472   1.082       .  S
C2470      C2772   1.486       .  S
C2470      C2471   1.387       .  A
C2471      H2473   1.079       .  S
N2474      N2475   1.321       .  A
N2474      C2478   1.348       .  A
N2474     Cu2482   2.079       .  S
N2475      C2476   1.341       .  A
N2475     Cu2481   2.056       .  S
C2476      C2477   1.379       .  A
C2476      H2479   1.082       .  S
C2477      C2478   1.387       .  A
C2478      H2480   1.082       .  S
Cu2481     N2484   2.055       .  S
Cu2482     N2492   2.081       .  S
Cu2483     N2485   2.080       .  S
Cu2483     N2491   2.081       .  S
N2484      N2485   1.321       .  A
N2484      C2488   1.341       .  A
N2485      C2486   1.348       .  A
C2486      C2487   1.387       .  A
C2486      H2489   1.082       .  S
C2487      C2488   1.379       .  A
C2488      H2490   1.082       .  S
N2491      N2492   1.324       .  A
N2491      C2495   1.345       .  A
N2492      C2493   1.345       .  A
C2493      C2494   1.386       .  A
C2493      H2496   1.082       .  S
C2494      C2758   1.486       .  S
C2494      C2495   1.386       .  A
C2495      H2497   1.082       .  S
N2498      N2499   1.320       .  A
N2498      C2502   1.349       .  A
N2498     Cu2506   2.078       .  S
N2499      C2500   1.341       .  A
C2500      C2501   1.379       .  A
C2500      H2503   1.082       .  S
C2501      C2502   1.387       .  A
C2502      H2504   1.082       .  S
Cu2505     N2508   2.054       .  S
Cu2506     N2516   2.080       .  S
Cu2507     N2509   2.084       .  S
Cu2507     N2515   2.086       .  S
N2508      N2509   1.321       .  A
N2508      C2512   1.340       .  A
N2509      C2510   1.349       .  A
C2510      C2511   1.388       .  A
C2510      H2513   1.082       .  S
C2511      C2512   1.378       .  A
C2512      H2514   1.082       .  S
N2515      C2519   1.346       .  A
N2516      C2517   1.346       .  A
C2517      H2520   1.082       .  S
C2518      C2744   1.476       .  S
C2518      C2519   1.383       .  A
C2519      H2521   1.082       .  S
N2522      N2523   1.320       .  A
N2522      C2526   1.348       .  A
N2522     Cu2530   2.077       .  S
N2523      C2524   1.341       .  A
N2523     Cu2529   2.055       .  S
C2524      C2525   1.379       .  A
C2524      H2527   1.082       .  S
C2525      C2526   1.387       .  A
C2526      H2528   1.082       .  S
Cu2529     N2532   2.055       .  S
Cu2531     N2533   2.082       .  S
N2532      N2533   1.321       .  A
N2532      C2536   1.340       .  A
N2533      C2534   1.349       .  A
C2534      C2535   1.388       .  A
C2534      H2537   1.082       .  S
C2535      C2536   1.379       .  A
C2536      H2538   1.082       .  S
N2539      N2540   1.325       .  A
N2539      C2543   1.346       .  A
N2540      C2541   1.345       .  A
C2541      C2542   1.380       .  A
C2541      H2544   1.082       .  S
C2542      C2730   1.473       .  S
C2542      C2543   1.382       .  A
C2543      H2545   1.082       .  S
C2546      C2747   1.572       .  S
C2546      C2775   1.573       .  S
C2546      C2800   1.574       .  S
O2547     Cu2555   2.010       .  S
O2547      C2557   1.277       .  A
O2548      C2558   1.278   1_554  A
O2549      C2559   1.277       .  A
O2550     Cu2555   2.006       .  S
O2550      C2560   1.278   1_554  A
O2551     Cu2556   2.008       .  S
O2551      C2560   1.276       .  A
O2552      C2559   1.278   1_556  A
O2553      C2558   1.277       .  A
O2554     Cu2556   2.009       .  S
O2554      C2557   1.278   1_556  A
Cu2555    Cu2556   2.376   1_554  S
C2557      C2636   1.469       .  S
C2558      C2660   1.469       .  S
C2559      C2588   1.468       .  S
C2560      C2612   1.467       .  S
O2561      C2571   1.277       .  A
O2562     Cu2569   2.006       .  S
O2562      C2572   1.278   1_556  A
O2563      C2573   1.277       .  A
O2564      C2574   1.279   1_556  A
O2565      C2574   1.277       .  A
O2566     Cu2570   2.004       .  S
O2566      C2573   1.278   1_554  A
O2567      C2572   1.277       .  A
O2568      C2571   1.278   1_554  A
C2571      C2650   1.468       .  S
C2572      C2626   1.468       .  S
C2573      C2602   1.469       .  S
C2574      C2578   1.469       .  S
N2575      N2576   1.321       .  A
N2575      C2579   1.349       .  A
N2575     Cu2583   2.082       .  S
N2576      C2577   1.341       .  A
N2576     Cu2582   2.055       .  S
C2577      C2578   1.379       .  A
C2577      H2580   1.082       .  S
C2578      C2579   1.388       .  A
C2579      H2581   1.082       .  S
Cu2582     N2585   2.055       .  S
Cu2583     N2593   2.084       .  S
Cu2584     N2586   2.077       .  S
Cu2584     N2592   2.079       .  S
N2585      N2586   1.321       .  A
N2585      C2589   1.340       .  A
N2586      C2587   1.348       .  A
C2587      C2588   1.387       .  A
C2587      H2590   1.082       .  S
C2588      C2589   1.379       .  A
C2589      H2591   1.082       .  S
N2592      N2593   1.325       .  A
N2592      C2596   1.345       .  A
N2593      C2594   1.347       .  A
C2594      C2595   1.382       .  A
C2594      H2597   1.082       .  S
C2595      C2716   1.473       .  S
C2595      C2596   1.380       .  A
C2596      H2598   1.082       .  S
N2599      N2600   1.321       .  A
N2599      C2603   1.349       .  A
N2599     Cu2607   2.080       .  S
N2600      C2601   1.340       .  A
N2600     Cu2606   2.055       .  S
C2601      C2602   1.379       .  A
C2601      H2604   1.082   1_556  S
C2602      C2603   1.388       .  A
C2603      H2605   1.082       .  S
Cu2606     N2609   2.055       .  S
Cu2607     N2617   2.082       .  S
Cu2608     N2610   2.076       .  S
Cu2608     N2616   2.077       .  S
N2609      N2610   1.321       .  A
N2609      C2613   1.341       .  A
N2610      C2611   1.348       .  A
C2611      C2612   1.386       .  A
C2611      H2614   1.082       .  S
C2612      C2613   1.379       .  A
C2613      H2615   1.082   1_556  S
N2616      N2617   1.323       .  A
N2616      C2620   1.345       .  A
N2617      C2618   1.344       .  A
C2618      C2619   1.388       .  A
C2618      H2621   1.081       .  S
C2619      C2702   1.488       .  S
C2619      C2620   1.386       .  A
C2620      H2622   1.082       .  S
N2623      N2624   1.321       .  A
N2623      C2627   1.348       .  A
N2623     Cu2631   2.077       .  S
N2624      C2625   1.341       .  A
N2624     Cu2630   2.055       .  S
C2625      C2626   1.379       .  A
C2625      H2628   1.082   1_554  S
C2626      C2627   1.387       .  A
C2627      H2629   1.082       .  S
Cu2630     N2633   2.056       .  S
Cu2631     N2641   2.078       .  S
Cu2632     N2634   2.081       .  S
Cu2632     N2640   2.082       .  S
N2633      N2634   1.321       .  A
N2633      C2637   1.341       .  A
N2634      C2635   1.348       .  A
C2635      C2636   1.387       .  A
C2635      H2638   1.082       .  S
C2636      C2637   1.379       .  A
C2637      H2639   1.082   1_554  S
N2640      N2641   1.324       .  A
N2640      C2644   1.346       .  A
N2641      C2642   1.344       .  A
C2642      C2643   1.385       .  A
C2642      H2645   1.082       .  S
C2643      C2688   1.484       .  S
C2643      C2644   1.386       .  A
C2644      H2646   1.082       .  S
N2647      N2648   1.321       .  A
N2647      C2651   1.349       .  A
N2647     Cu2655   2.080       .  S
N2648      C2649   1.340       .  A
N2648     Cu2654   2.055       .  S
C2649      C2650   1.378       .  A
C2649      H2652   1.082   1_556  S
C2650      C2651   1.387       .  A
C2651      H2653   1.082       .  S
Cu2654     N2657   2.055       .  S
Cu2655     N2665   2.081       .  S
Cu2656     N2658   2.077       .  S
Cu2656     N2664   2.080       .  S
N2657      N2658   1.320       .  A
N2657      C2661   1.340       .  A
N2658      C2659   1.349       .  A
C2659      C2660   1.387       .  A
C2659      H2662   1.082       .  S
C2660      C2661   1.379       .  A
C2661      H2663   1.082   1_556  S
N2664      N2665   1.323       .  A
N2664      C2668   1.344       .  A
N2665      C2666   1.346       .  A
C2666      C2667   1.387       .  A
C2666      H2669   1.082       .  S
C2667      C2674   1.488       .  S
C2667      C2668   1.387       .  A
C2668      H2670   1.081       .  S
C2671      C2691   1.572       .  S
C2671      C2719   1.569       .  S
C2671      C2733   1.567       .  S
C2671      C2761   1.565       .  S
C2672      C2677   1.564       .  S
C2672      C2705   1.573       .  S
C2672      C2845   1.569       .  S
C2672      C2859   1.571       .  S
C2673      C2674   1.403       .  A
C2673      C2678   1.405       .  A
C2673      H2680   1.083       .  S
C2674      C2675   1.407       .  A
C2675      C2676   1.400       .  A
C2675      N2682   1.432       .  S
C2676      C2677   1.416       .  A
C2676      H2681   1.077       .  S
C2677      C2678   1.424       .  A
C2678      N2679   1.433       .  S
N2679      H2683   1.045       .  S
N2679      H2684   1.046       .  S
N2682      H2685   1.046       .  S
N2682      H2686   1.046       .  S
C2687      C2688   1.401       .  A
C2687      C2692   1.403       .  A
C2687      H2694   1.084       .  S
C2688      C2689   1.415       .  A
C2689      C2690   1.402       .  A
C2689      N2696   1.441       .  S
C2690      C2691   1.418       .  A
C2690      H2695   1.079       .  S
C2691      C2692   1.424       .  A
C2692      N2693   1.433       .  S
N2693      H2697   1.046       .  S
N2693      H2698   1.046       .  S
N2696      H2699   1.042       .  S
N2696      H2700   1.046       .  S
C2701      C2702   1.402       .  A
C2701      C2706   1.404       .  A
C2701      H2708   1.083       .  S
C2702      C2703   1.409       .  A
C2703      C2704   1.404       .  A
C2703      N2710   1.438       .  S
C2704      C2705   1.419       .  A
C2704      H2709   1.077       .  S
C2705      C2706   1.424       .  A
C2706      N2707   1.433       .  S
N2707      H2711   1.046       .  S
N2707      H2712   1.046       .  S
N2710      H2713   1.046       .  S
N2710      H2714   1.046       .  S
C2715      C2716   1.395       .  A
C2715      C2720   1.402       .  A
C2715      H2722   1.084       .  S
C2716      C2717   1.412       .  A
C2717      C2718   1.402       .  A
C2717      N2724   1.439       .  S
C2718      C2719   1.417       .  A
C2718      H2723   1.080       .  S
C2719      C2720   1.426       .  A
C2720      N2721   1.430       .  S
N2721      H2725   1.046       .  S
N2721      H2726   1.046       .  S
N2724      H2727   1.043       .  S
N2724      H2728   1.046       .  S
C2729      C2730   1.397       .  A
C2729      C2734   1.404       .  A
C2729      H2736   1.085       .  S
C2730      C2731   1.408       .  A
C2731      C2732   1.400       .  A
C2731      N2738   1.439       .  S
C2732      C2733   1.419       .  A
C2732      H2737   1.084       .  S
C2733      C2734   1.429       .  A
C2734      N2735   1.432       .  S
N2735      H2739   1.046       .  S
N2735      H2740   1.045       .  S
N2738      H2742   1.046       .  S
C2743      C2748   1.406       .  A
C2743      H2750   1.084       .  S
C2744      C2745   1.409       .  A
C2745      C2746   1.400       .  A
C2745      N2752   1.439       .  S
C2746      C2747   1.418       .  A
C2746      H2751   1.080       .  S
C2748      N2749   1.432       .  S
N2749      H2753   1.046       .  S
N2749      H2754   1.046       .  S
N2752      H2755   1.043       .  S
N2752      H2756   1.046       .  S
C2757      C2758   1.400       .  A
C2757      C2762   1.402       .  A
C2757      H2764   1.083       .  S
C2758      C2759   1.408       .  A
C2759      C2760   1.406       .  A
C2759      N2766   1.438       .  S
C2760      C2761   1.417       .  A
C2760      H2765   1.078       .  S
C2761      C2762   1.425       .  A
C2762      N2763   1.433       .  S
N2763      H2767   1.046       .  S
N2763      H2768   1.045       .  S
N2766      H2769   1.046       .  S
N2766      H2770   1.046       .  S
C2771      C2776   1.403       .  A
C2771      H2778   1.085       .  S
C2772      C2773   1.409       .  A
C2773      C2774   1.397       .  A
C2773      N2780   1.432       .  S
C2774      C2775   1.419       .  A
C2774      H2779   1.082       .  S
C2776      N2777   1.438       .  S
N2777      H2781   1.045       .  S
N2777      H2782   1.033       .  S
N2780      H2783   1.045       .  S
N2780      H2784   1.043       .  S
C2785      C2786   1.399       .  A
C2785      C2790   1.404       .  A
C2785      H2792   1.084       .  S
C2786      C2787   1.409       .  A
C2787      C2788   1.400       .  A
C2787      N2794   1.439       .  S
C2788      C2789   1.416       .  A
C2788      H2793   1.079       .  S
C2789      C2790   1.426       .  A
N2791      H2795   1.046       .  S
N2791      H2796   1.046       .  S
N2794      H2797   1.043       .  S
N2794      H2798   1.046       .  S
C2799      C2800   1.421       .  A
C2799      C2804   1.403       .  A
C2799      H2806   1.080       .  S
C2800      C2801   1.423       .  A
C2801      C2802   1.402       .  A
C2802      C2803   1.399       .  A
C2802      H2807   1.084       .  S
C2803      C2804   1.412       .  A
C2804      N2805   1.440       .  S
N2805      H2809   1.046       .  S
N2805      H2810   1.042       .  S
N2808      H2811   1.046       .  S
N2808      H2812   1.046       .  S
C2813      C2814   1.398       .  A
C2813      C2818   1.407       .  A
C2813      H2820   1.084       .  S
C2814      C2815   1.408       .  A
C2815      C2816   1.404       .  A
C2815      N2822   1.438       .  S
C2816      C2817   1.416       .  A
C2816      H2821   1.081       .  S
C2817      C2818   1.435       .  A
C2818      N2819   1.438       .  S
N2819      H2823   1.046       .  S
N2819      H2824   1.042       .  S
N2822      H2825   1.046       .  S
N2822      H2826   1.046       .  S
C2827      C2828   1.416       .  A
C2827      C2832   1.401       .  A
C2827      H2834   1.079       .  S
C2828      C2829   1.426       .  A
C2829      C2830   1.402       .  A
C2829      N2836   1.432       .  S
C2830      C2831   1.395       .  A
C2830      H2835   1.084       .  S
C2831      C2832   1.413       .  A
C2832      N2833   1.439       .  S
N2833      H2837   1.046       .  S
N2833      H2838   1.043       .  S
N2836      H2839   1.046       .  S
N2836      H2840   1.046       .  S
C2841      C2842   1.402       .  A
C2841      C2846   1.404       .  A
C2841      H2848   1.083       .  S
C2842      C2843   1.415       .  A
C2843      C2844   1.397       .  A
C2843      N2850   1.431       .  S
C2844      C2845   1.416       .  A
C2844      H2849   1.084       .  S
C2845      C2846   1.428       .  A
C2846      N2847   1.432       .  S
N2847      H2851   1.046       .  S
N2847      H2852   1.046       .  S
N2850      H2853   1.045       .  S
N2850      H2854   1.042       .  S
C2855      C2856   1.401       .  A
C2855      C2860   1.403       .  A
C2855      H2862   1.083       .  S
C2856      C2857   1.408       .  A
C2857      C2858   1.402       .  A
C2857      N2864   1.432       .  S
C2858      C2859   1.416       .  A
C2858      H2863   1.078       .  S
C2859      C2860   1.425       .  A
C2860      N2861   1.432       .  S
N2861      H2865   1.046       .  S
N2861      H2866   1.046       .  S
N2864      H2867   1.046       .  S
N2864      H2868   1.046       .  S
C2869      C2870   1.393       .  A
C2869      C2874   1.402       .  A
C2869      H2876   1.084       .  S
C2871      C2872   1.405       .  A
C2871      N2878   1.438       .  S
C2872      H2877   1.078       .  S
C2873      C2874   1.428       .  A
C2874      N2875   1.432       .  S
N2875      H2879   1.046       .  S
N2875      H2880   1.046       .  S
N2878      H2881   1.046   1_655  S
N2878      H2882   1.046       .  S
C2883      C2888   1.404       .  A
C2883      H2890   1.084       .  S
C2884      C2885   1.411       .  A
C2885      C2886   1.397       .  A
C2885      N2892   1.432       .  S
C2886      C2887   1.414       .  A
C2886      H2891   1.078       .  S
C2888      N2889   1.432       .  S
N2889      H2893   1.046       .  S
N2889      H2894   1.046       .  S
N2892      H2895   1.043       .  S
N2892      H2896   1.045       .  S
