geometry optimzed in LAMMPS
_audit_creation_date              2020-12-01 
_audit_creation_method            'lammps2cif' 
_symmetry_space_group_name_H-M    'P1' 
_symmetry_Int_Tables_number       1 
_symmetry_cell_setting            triclinic 
loop_ 
_symmetry_equiv_pos_as_xyz 
  x,y,z 
_cell_length_a                    39.2869645 
_cell_length_b                    39.42052851548817 
_cell_length_c                    39.24734119910962 
_cell_angle_alpha                 90.162896452268 
_cell_angle_beta                  89.9989927668507 
_cell_angle_gamma                 89.9200215304941 
loop_ 
_atom_site_label 
_atom_site_type_symbol 
_atom_site_fract_x 
_atom_site_fract_y 
_atom_site_fract_z 
_atom_site_charge 
C1          C  0.18543593  0.80860859  0.53239954     0.79300
N2          N  0.16369795  0.83545277  0.53521563    -0.79000
C3          C  0.15076782  0.85014643  0.50645450     0.81800
N4          N  0.16049886  0.83844167  0.47515068    -0.78900
C5          C  0.18223858  0.81165511  0.47281043     0.81900
N6          N  0.19430112  0.79700840  0.50133000    -0.80600
C7          C  0.94181661  0.07268871  0.53526241     0.79300
N8          N  0.96495782  0.04691404  0.53682061    -0.79000
C9          C  0.97727683  0.03292540  0.50729279     0.81800
N10         N  0.96597826  0.04467311  0.47654100    -0.78900
C11         C  0.94306952  0.07060895  0.47548055     0.81900
N12         N  0.93147927  0.08428440  0.50475598    -0.80600
C13         C  0.93341881  0.81987531  0.53343650     0.79300
N14         N  0.96047742  0.84141024  0.53476210    -0.79000
C15         C  0.97303726  0.85505362  0.50533690     0.81800
N16         N  0.95905099  0.84607734  0.47468400    -0.78900
C17         C  0.93197710  0.82451943  0.47378701     0.81900
N18         N  0.91939054  0.81204133  0.50311265    -0.80600
C19         C  0.53400059  0.81219000  0.12779368     0.79300
N20         N  0.53521950  0.83660332  0.10329546    -0.79000
C21         C  0.56599920  0.84695139  0.09072559     0.81800
N22         N  0.59532755  0.83243886  0.10280444    -0.78900
C23         C  0.59358878  0.80794195  0.12725615     0.81900
N24         N  0.56305445  0.79808732  0.13917803    -0.80600
C25         C  0.94103000  0.40194148  0.13817909     0.79300
N26         N  0.93181768  0.43161980  0.15256772    -0.79000
C27         C  0.94314406  0.46141243  0.14031880     0.81800
N28         N  0.96473777  0.46171691  0.11315394    -0.78900
C29         C  0.97504933  0.43179132  0.09875545     0.81900
N30         N  0.96265188  0.40178893  0.11101170    -0.80600
C31         C  0.93003023  0.40514318  0.88992431     0.79300
N32         N  0.95744143  0.40578235  0.91119138    -0.79000
C33         C  0.97174519  0.43621311  0.92009472     0.81800
N34         N  0.95884506  0.46568722  0.90694981    -0.78900
C35         C  0.93139312  0.46455148  0.88570489     0.81900
N36         N  0.91736071  0.43439561  0.87780093    -0.80600
C37         C  0.52989901  0.04780973  0.86485092     0.79300
N38         N  0.53158175  0.02651399  0.89208144    -0.79000
C39         C  0.56261743  0.01638978  0.90421055     0.81800
N40         N  0.59173484  0.02875181  0.88966143    -0.78900
C41         C  0.58958733  0.05003508  0.86239227     0.81900
N42         N  0.55878235  0.05893068  0.85027386    -0.80600
C43         C  0.18646608  0.40949667  0.87808222     0.79300
N44         N  0.19324105  0.43885162  0.86198490    -0.79000
C45         C  0.17992425  0.46846725  0.87287423     0.81800
N46         N  0.15868295  0.46877328  0.90039387    -0.78900
C47         C  0.15088864  0.43903514  0.91656548     0.81900
N48         N  0.16515907  0.40934372  0.90545726    -0.80600
C49         C  0.53923185  0.79833188  0.87979664     0.79300
N50         N  0.56868461  0.78478834  0.86879256    -0.79000
C51         C  0.59892759  0.79764159  0.87833346     0.81800
N52         N  0.59998028  0.82475582  0.90009159    -0.78900
C53         C  0.57018034  0.83833190  0.91229285     0.81900
N54         N  0.53974046  0.82535625  0.90149891    -0.80600
C55         C  0.08736366  0.30825965  0.38503636     0.79300
N56         N  0.05734027  0.29692500  0.37295621    -0.79000
C57         C  0.02786499  0.31251423  0.38088823     0.81800
N58         N  0.02805310  0.33995366  0.40208657    -0.78900
C59         C  0.05820189  0.35143091  0.41518678     0.81900
N60         N  0.08798368  0.33577815  0.40615467    -0.80600
O61         O  0.33922971  0.23340222  0.22135183    -0.89200
C62         C  0.23755639  0.21121016  0.22635576     0.86800
Mg63       Mg  0.37667372  0.19998647  0.19920905     1.58100
O64         O  0.28249543  0.21115662  0.30534666    -0.88900
O65         O  0.32771134  0.26549151  0.26535288    -0.76300
C66         C  0.35612194  0.06282693  0.28264122     0.91900
O67         O  0.29641482  0.18798915  0.16802496    -0.76100
O68         O  0.36714548  0.07043033  0.25327742    -0.83600
Mg69       Mg  0.29536211  0.24240069  0.19016680     1.58000
C70         C  0.26454336  0.12443765  0.36485982     0.91800
O71         O  0.29174837  0.29749772  0.20684520    -0.81900
H72         H  0.30965121  0.23398581  0.34190376    -0.07200
C73         C  0.27198830  0.11832563  0.25773573     0.86700
O74         O  0.39466734  0.18326588  0.25227061    -0.76400
O75         O  0.26412156  0.22652115  0.23259698    -0.89100
O76         O  0.25045651  0.15112667  0.35342686    -0.81900
C77         C  0.19775317  0.23914356  0.31789939     0.91900
C78         C  0.26416790  0.31018253  0.21794042     0.91800
Mg79       Mg  0.32540283  0.13112736  0.30981495     1.58000
O80         O  0.32859774  0.07597205  0.29329906    -0.81900
O81         O  0.32420037  0.18549536  0.33180944    -0.76100
O82         O  0.21598606  0.25635923  0.29752230    -0.81900
O83         O  0.32946596  0.26113281  0.14783531    -0.83700
O84         O  0.40374501  0.11591676  0.20216262    -0.82000
C85         C  0.30526035  0.21124222  0.32709138     0.86200
O86         O  0.35648978  0.14647233  0.26724242    -0.89100
O87         O  0.28120758  0.13980486  0.27870646    -0.89200
O88         O  0.29245172  0.10666736  0.23552111    -0.76300
Mg89       Mg  0.27085251  0.25694972  0.27816808     1.58000
O90         O  0.20390968  0.20803969  0.32387461    -0.83700
H91         H  0.37440100  0.26302711  0.24313829    -0.07400
O92         O  0.33711045  0.16156118  0.19523476    -0.88900
H93         H  0.30992933  0.13907445  0.15847528    -0.07200
H94         H  0.39653335  0.15720658  0.29681494    -0.07400
C95         C  0.31458459  0.16178147  0.17325622     0.86200
C96         C  0.34834512  0.25424214  0.24305091     0.86800
C97         C  0.38315371  0.16175900  0.27318943     0.86800
H98         H  0.24601000  0.10932820  0.25823907    -0.07400
O99         O  0.22581114  0.18975665  0.24718010    -0.76400
Mg100      Mg  0.34913845  0.11547684  0.22213210     1.58000
H101        H  0.22443044  0.21574185  0.20258583    -0.07400
C102        C  0.35580285  0.24798836  0.13443793     0.91800
O103        O  0.41515370  0.16421029  0.17553385    -0.83600
C104        C  0.42162801  0.13318890  0.18153826     0.91800
O105        O  0.25325107  0.30187484  0.24713360    -0.83600
Mg106      Mg  0.24308795  0.17264547  0.30031456     1.58200
O107        O  0.36815719  0.22021965  0.14534408    -0.81900
O108        O  0.29196645  0.11278135  0.35236625    -0.83600
C109        C  0.43301666  0.97386997  0.36795778     0.79300
N110        N  0.42017573  0.94346190  0.35918549    -0.79000
C111        C  0.43204249  0.91464222  0.37308511     0.81800
N112        N  0.45757834  0.91599137  0.39653616    -0.78900
C113        C  0.47072100  0.94670848  0.40613621     0.81900
N114        N  0.45845025  0.97580759  0.39156318    -0.80600
O115        O  0.25962905  0.66203455  0.22095471    -0.89200
C116        C  0.29368657  0.66271464  0.32010035     0.86800
Mg117      Mg  0.29219256  0.64671941  0.17944670     1.58100
O118        O  0.28086792  0.74212619  0.28148694    -0.88900
O119        O  0.22478952  0.70110146  0.23973606    -0.76300
C120        C  0.42815376  0.74027850  0.19748191     0.91900
O121        O  0.31506544  0.61072606  0.25550364    -0.76100
O122        O  0.41878703  0.71157747  0.18604715    -0.83600
Mg123      Mg  0.25932579  0.62695883  0.26324062     1.58000
C124        C  0.36183250  0.81144641  0.29852593     0.91800
O125        O  0.20270225  0.63599993  0.27315108    -0.81900
H126        H  0.25153235  0.77716970  0.25922144    -0.07200
C127        C  0.37861418  0.70529708  0.28223913     0.86700
O128        O  0.30369108  0.70227376  0.16534070    -0.76400
O129        O  0.27481814  0.66829181  0.29560949    -0.89100
O130        O  0.33494962  0.79811549  0.31049199    -0.81900
C131        C  0.25809752  0.74748188  0.36678399     0.91900
C132        C  0.19009008  0.64513692  0.30151718     0.91800
Mg133      Mg  0.35670720  0.76049936  0.23416132     1.58000
O134        O  0.41350495  0.75373369  0.22305863    -0.81900
O135        O  0.30013591  0.77528808  0.24148520    -0.76100
O136        O  0.24718875  0.72033179  0.35315257    -0.81900
O137        O  0.24227023  0.58451356  0.22897431    -0.83700
O138        O  0.37197845  0.66298316  0.14576707    -0.82000
C139        C  0.27630508  0.76531823  0.26091784     0.86200
O140        O  0.34238893  0.71896136  0.20127694    -0.89100
O141        O  0.35571169  0.72595187  0.27640681    -0.89200
O142        O  0.38909804  0.68497716  0.25934198    -0.76300
Mg143      Mg  0.23940596  0.70945423  0.29644017     1.58000
O144        O  0.28607298  0.76046527  0.35744079    -0.83700
H145        H  0.22403273  0.68296687  0.19114975    -0.07400
O146        O  0.33379877  0.64419415  0.21558676    -0.88900
H147        H  0.36287070  0.60783335  0.23596368    -0.07200
H148        H  0.32461411  0.74938018  0.16465868    -0.07400
C149        C  0.33836796  0.62033152  0.23534731     0.86200
C150        C  0.23576302  0.68187837  0.21604355     0.86800
C151        C  0.32388559  0.72471720  0.17661325     0.86800
H152        H  0.38964830  0.70418194  0.30744680    -0.07400
O153        O  0.31311519  0.68569975  0.33180493    -0.76400
Mg154      Mg  0.37650376  0.67621515  0.20253335     1.58000
H155        H  0.29375807  0.63786462  0.33168506    -0.07400
C156        C  0.25217968  0.57511252  0.19965456     0.91800
O157        O  0.32860829  0.62764119  0.13926644    -0.83600
C158        C  0.35825655  0.63758739  0.13114226     0.91800
O159        O  0.19917386  0.67282326  0.31526875    -0.83600
Mg160      Mg  0.32245248  0.74176792  0.31720649     1.58200
O161        O  0.27463107  0.59147323  0.18313354    -0.81900
O162        O  0.37423750  0.80152137  0.27035491    -0.83600
O163        O  0.75897858  0.21435789  0.22003205    -0.89200
C164        C  0.80210349  0.11909533  0.21179461     0.86800
Mg165      Mg  0.78882429  0.25871247  0.20758186     1.58100
O166        O  0.78921542  0.14804380  0.29570880    -0.88900
O167        O  0.72893618  0.18937029  0.25972704    -0.76300
C168        C  0.92535717  0.24581298  0.30121473     0.91900
O169        O  0.81682918  0.18856903  0.16579076    -0.76100
O170        O  0.91403551  0.25962687  0.27433698    -0.83600
Mg171      Mg  0.76191478  0.17510560  0.18161756     1.58000
C172        C  0.87251613  0.13389659  0.36430421     0.91800
O173        O  0.70639498  0.15906451  0.18965349    -0.81900
H174        H  0.75833098  0.16166407  0.33389215    -0.07200
C175        C  0.88632952  0.16013376  0.25838909     0.86700
O176        O  0.79892344  0.26855345  0.26495970    -0.76400
O177        O  0.78122706  0.14107376  0.21998692    -0.89100
O178        O  0.85155952  0.11673926  0.34652500    -0.81900
C179        C  0.77195333  0.06425523  0.29459665     0.91900
C180        C  0.69502371  0.13037378  0.19899907     0.91800
Mg181      Mg  0.85856708  0.20029669  0.31794460     1.58000
O182        O  0.91376409  0.21749417  0.31135163    -0.81900
O183        O  0.80397720  0.18582916  0.33335320    -0.76100
O184        O  0.76176251  0.07763651  0.26700228    -0.81900
O185        O  0.74091127  0.21155489  0.14253060    -0.83700
O186        O  0.85917810  0.29637127  0.23304416    -0.82000
C187        C  0.78272675  0.16469300  0.32152851     0.86200
O188        O  0.83966141  0.23370049  0.27915817    -0.89100
O189        O  0.86277712  0.16119920  0.27924284    -0.89200
O190        O  0.89402957  0.18583489  0.24044007    -0.76300
Mg191      Mg  0.74783248  0.13358230  0.26217863     1.58000
O192        O  0.80072284  0.07225596  0.30690292    -0.83700
H193        H  0.72287592  0.23885197  0.24640707    -0.07400
O194        O  0.83271073  0.22566560  0.20372826    -0.88900
H195        H  0.86332207  0.21117173  0.16561371    -0.07200
H196        H  0.81843132  0.26550056  0.31286395    -0.07400
C197        C  0.83881573  0.20883554  0.17791002     0.86200
C198        C  0.73641846  0.21535200  0.24200701     0.86800
C199        C  0.81914034  0.25615390  0.28694888     0.86800
H200        H  0.90044235  0.13679036  0.25509568    -0.07400
O201        O  0.82303017  0.10712807  0.23334738    -0.76400
Mg202      Mg  0.87383284  0.24095172  0.23745672     1.58000
H203        H  0.80263189  0.10990861  0.18581890    -0.07400
C204        C  0.74945706  0.24162289  0.13473182     0.91800
O205        O  0.82357167  0.30158979  0.19044172    -0.83600
C206        C  0.85164811  0.30919131  0.20445020     0.91800
O207        O  0.70691312  0.11568519  0.22519331    -0.83600
Mg208      Mg  0.83394755  0.11617914  0.29062587     1.58200
O209        O  0.77251757  0.25734629  0.15119104    -0.81900
O210        O  0.87926689  0.16460832  0.35741124    -0.83600
C211        C  0.68659810  0.97199859  0.36714422     0.79300
N212        N  0.69620420  0.94167836  0.35450072    -0.79000
C213        C  0.68287788  0.91262142  0.36646022     0.81800
N214        N  0.65917751  0.91368579  0.39180586    -0.78900
C215        C  0.64882239  0.94430149  0.40469395     0.81900
N216        N  0.66282241  0.97358371  0.39239871    -0.80600
O217        O  0.78621499  0.63457486  0.22224405    -0.89200
C218        C  0.88149354  0.67735914  0.21608455     0.86800
Mg219      Mg  0.74224961  0.66465462  0.20868971     1.58100
O220        O  0.84949702  0.66771723  0.29930518    -0.88900
O221        O  0.80895574  0.60623601  0.26441019    -0.76300
C222        C  0.75398438  0.80572375  0.29683090     0.91900
O223        O  0.81268526  0.69111782  0.16695410    -0.76100
O224        O  0.74198272  0.79365811  0.26931911    -0.83600
Mg225      Mg  0.82656580  0.63715363  0.18439195     1.58000
C226        C  0.86472545  0.75294047  0.36564668     0.91800
O227        O  0.84554458  0.58282843  0.19163726    -0.81900
H228        H  0.83462200  0.63849242  0.33813683    -0.07200
C229        C  0.84100282  0.76254473  0.25878231     0.86700
O230        O  0.73141004  0.67718170  0.26534829    -0.76400
O231        O  0.85898137  0.65697348  0.22382165    -0.89100
O232        O  0.88112077  0.72978973  0.34993414    -0.81900
C233        C  0.93435457  0.64811224  0.29957780     0.91900
C234        C  0.87110057  0.56985207  0.20664347     0.91800
Mg235      Mg  0.79828378  0.73871301  0.31843658     1.58000
O236        O  0.78087300  0.79360071  0.31018482    -0.81900
O237        O  0.81156669  0.68461070  0.33596177    -0.76100
O238        O  0.92062050  0.63853764  0.27196824    -0.81900
O239        O  0.79109590  0.61509361  0.14472322    -0.83700
O240        O  0.70383344  0.73932056  0.22819868    -0.82000
C241        C  0.83231253  0.66246910  0.32502204     0.86200
O242        O  0.76508210  0.71904158  0.27920427    -0.89100
O243        O  0.83887057  0.74057094  0.28104114    -0.89200
O244        O  0.81598559  0.76940124  0.23942269    -0.76300
Mg245      Mg  0.86449754  0.62511111  0.26771981     1.58000
O246        O  0.92593375  0.67630246  0.31287405    -0.83700
H247        H  0.76031574  0.59939331  0.24814941    -0.07400
O248        O  0.77536071  0.70811566  0.20406068    -0.88900
H249        H  0.78964258  0.73724786  0.16496544    -0.07200
H250        H  0.73241859  0.69871534  0.31247510    -0.07400
C251        C  0.79216840  0.71332186  0.17812825     0.86200
C252        C  0.78407530  0.61276343  0.24472879     0.86800
C253        C  0.74263110  0.69855766  0.28689547     0.86800
H254        H  0.86478256  0.77588251  0.25538638    -0.07400
O255        O  0.89321047  0.69833682  0.23775630    -0.76400
Mg256      Mg  0.76026242  0.75098831  0.23524888     1.58000
H257        H  0.89143485  0.67736236  0.19040125    -0.07400
C258        C  0.76076646  0.62325328  0.13696150     0.91800
O259        O  0.69917599  0.69847758  0.19006780    -0.83600
C260        C  0.69039027  0.72745021  0.20125990     0.91800
O261        O  0.88232997  0.58180563  0.23450185    -0.83600
Mg262      Mg  0.88297232  0.71075676  0.29455867     1.58200
O263        O  0.74473154  0.64631271  0.15315782    -0.81900
O264        O  0.83427291  0.76052554  0.35774666    -0.83600
C265        C  0.09115605  0.56237604  0.36792194     0.79300
N266        N  0.09058086  0.54048305  0.39474098    -0.79000
C267        C  0.06002995  0.52929607  0.40710811     0.81800
N268        N  0.03037929  0.54115307  0.39329511    -0.78900
C269        C  0.03145861  0.56298820  0.36649655     0.81900
N270        N  0.06169998  0.57310331  0.35409146    -0.80600
C271        C  0.42832386  0.31357482  0.96764109     0.79300
N272        N  0.41499652  0.30383657  0.99767081    -0.79000
C273        C  0.42592463  0.31740509  0.02721260     0.81800
N274        N  0.45090678  0.34131610  0.02696813    -0.78900
C275        C  0.46451012  0.35165395  0.99667113     0.81900
N276        N  0.45329545  0.33748125  0.96689173    -0.80600
O277        O  0.28091880  0.24330974  0.72570487    -0.89200
C278        C  0.27442297  0.20055270  0.82103108     0.86800
Mg279      Mg  0.26618976  0.21468973  0.68132266     1.58100
O280        O  0.35739653  0.21015951  0.78879728    -0.88900
O281        O  0.32232243  0.27219413  0.74927866    -0.76300
C282        C  0.35506352  0.07522452  0.69131045     0.91900
O283        O  0.22557596  0.18749816  0.75268792    -0.76100
O284        O  0.32934720  0.08800369  0.67654238    -0.83600
Mg285      Mg  0.24387492  0.24146635  0.76618730     1.58000
C286        C  0.42266727  0.12405351  0.80193106     0.91800
O287        O  0.25518961  0.29612277  0.78184947    -0.81900
H288        H  0.39640252  0.23925794  0.77415352    -0.07200
C289        C  0.31530599  0.11560753  0.77814073     0.86700
O290        O  0.32286557  0.20255827  0.67007403    -0.76400
O291        O  0.28266019  0.22067379  0.79846555    -0.89100
O292        O  0.40743407  0.14716889  0.81880722    -0.81900
C293        C  0.35900392  0.22793432  0.87315309     0.91900
C294        C  0.26530862  0.30686144  0.81065774     0.91800
Mg295      Mg  0.37491463  0.13979382  0.73675070     1.58000
O296        O  0.36354219  0.08516230  0.72090836    -0.81900
O297        O  0.39372122  0.19342792  0.75044306    -0.76100
O298        O  0.33104242  0.23756903  0.86028618    -0.81900
O299        O  0.20412852  0.26401727  0.73162924    -0.83700
O300        O  0.28882739  0.14493516  0.64144275    -0.82000
C301        C  0.38306195  0.21542347  0.77154465     0.86200
O302        O  0.33635318  0.16118917  0.70431915    -0.89100
O303        O  0.33741425  0.13789187  0.77688535    -0.89200
O304        O  0.29683413  0.10861561  0.75236977    -0.76300
Mg305      Mg  0.32602460  0.25251937  0.80482321     1.58000
O306        O  0.37134697  0.19929926  0.86495893    -0.83700
H307        H  0.30674048  0.27893757  0.70032108    -0.07400
O308        O  0.26137980  0.17071929  0.71374327    -0.88900
H309        H  0.22285799  0.14145771  0.72937180    -0.07200
H310        H  0.37008056  0.18139048  0.67202615    -0.07400
C311        C  0.23607456  0.16540154  0.73155601     0.86200
C312        C  0.30321765  0.26536141  0.72395290     0.86800
C313        C  0.34439447  0.18155625  0.68190294     0.86800
H314        H  0.31152495  0.10183906  0.80161968    -0.07400
O315        O  0.29559745  0.17914880  0.83272462    -0.76400
Mg316      Mg  0.29357086  0.12899714  0.69694489     1.58000
H317        H  0.24878609  0.20117202  0.83102910    -0.07400
C318        C  0.19544256  0.25618757  0.70146308     0.91800
O319        O  0.24691189  0.18160719  0.63780453    -0.83600
C320        C  0.26074039  0.15404138  0.62841540     0.91800
O321        O  0.29159653  0.29437006  0.82459757    -0.83600
Mg322      Mg  0.35206087  0.16631734  0.82153406     1.58200
O323        O  0.21088688  0.23319002  0.68465722    -0.81900
O324        O  0.41398836  0.11673151  0.77163683    -0.83600
C325        C  0.43676714  0.97346274  0.62478460     0.79300
N326        N  0.42931077  0.94334771  0.63909764    -0.79000
C327        C  0.44231421  0.91411389  0.62685532     0.81800
N328        N  0.46404908  0.91488773  0.59980956    -0.78900
C329        C  0.47259402  0.94527282  0.58540517     0.81900
N330        N  0.45854752  0.97465287  0.59774634    -0.80600
O331        O  0.36515789  0.71939112  0.72138673    -0.89200
C332        C  0.32388321  0.72471871  0.81826165     0.86800
Mg333      Mg  0.33453588  0.73231348  0.67769474     1.58100
O334        O  0.33254679  0.64220678  0.78448030    -0.88900
O335        O  0.39384693  0.67724384  0.74326623    -0.76300
C336        C  0.19308592  0.64567484  0.69119819     0.91900
O337        O  0.30855087  0.77368605  0.74931053    -0.76100
O338        O  0.20540755  0.67291842  0.67936283    -0.83600
Mg339      Mg  0.36302428  0.75663947  0.76224931     1.58000
C340        C  0.24741856  0.57566582  0.80041371     0.91800
O341        O  0.41800666  0.74923389  0.78032852    -0.81900
H342        H  0.36153455  0.60317757  0.76949063    -0.07200
C343        C  0.23722578  0.68343775  0.77754168     0.86700
O344        O  0.32218563  0.67567040  0.66794219    -0.76400
O345        O  0.34413146  0.71716133  0.79540220    -0.89100
O346        O  0.27053226  0.59198370  0.81622499    -0.81900
C347        C  0.35288405  0.63902037  0.86948405     0.91900
C348        C  0.43126452  0.73390177  0.80557391     0.91800
Mg349      Mg  0.26048035  0.62307363  0.73460034     1.58000
O350        O  0.20543967  0.63174969  0.71764993    -0.81900
O351        O  0.31483628  0.60528797  0.74732719    -0.76100
O352        O  0.36552274  0.66529262  0.85574573    -0.81900
O353        O  0.38387509  0.79650581  0.72610108    -0.83700
O354        O  0.26098233  0.71035896  0.64036784    -0.82000
C355        C  0.33747286  0.61636014  0.76746871     0.86200
O356        O  0.28032669  0.66208892  0.70191271    -0.89100
O357        O  0.25890537  0.66080251  0.77502838    -0.89200
O358        O  0.23038835  0.70297619  0.75271821    -0.76300
Mg359      Mg  0.37598658  0.67282601  0.79903749     1.58000
O360        O  0.32363615  0.62844234  0.86080592    -0.83700
H361        H  0.40038947  0.69398476  0.69479631    -0.07400
O362        O  0.29152867  0.73715538  0.71144868    -0.88900
H363        H  0.26213507  0.77581907  0.72660032    -0.07200
H364        H  0.30124516  0.62857687  0.66975455    -0.07400
C365        C  0.28626880  0.76277914  0.72870097     0.86200
C366        C  0.38711939  0.69710802  0.71873382     0.86800
C367        C  0.30103706  0.65422871  0.67956836     0.86800
H368        H  0.22422233  0.68708113  0.80155530    -0.07400
O369        O  0.30246422  0.70333101  0.82945481    -0.76400
Mg370      Mg  0.24858673  0.70602055  0.69683462     1.58000
H371        H  0.32424717  0.75007451  0.82882806    -0.07400
C372        C  0.37575055  0.80406418  0.69564959     0.91800
O373        O  0.29958203  0.75027087  0.63503550    -0.83600
C374        C  0.27103850  0.73766790  0.62670948     0.91800
O375        O  0.41952447  0.70591565  0.81637234    -0.83600
Mg376      Mg  0.28945153  0.64710425  0.81839595     1.58200
O377        O  0.35325499  0.78743671  0.67927305    -0.81900
O378        O  0.23880935  0.58333236  0.77017637    -0.83600
C379        C  0.08697322  0.57820542  0.61786198     0.79300
N380        N  0.08635879  0.55143438  0.59592432    -0.79000
C381        C  0.05587981  0.53810735  0.58584662     0.81800
N382        N  0.02622251  0.55104073  0.59886684    -0.78900
C383        C  0.02737540  0.57798496  0.62073418     0.81900
N384        N  0.05762747  0.59122607  0.62975228    -0.80600
C385        C  0.08766734  0.32986901  0.63596602     0.79300
N386        N  0.05762553  0.32023204  0.64928222    -0.79000
C387        C  0.02791645  0.32975943  0.63518325     0.81800
N388        N  0.02794166  0.35009893  0.60722878    -0.78900
C389        C  0.05815726  0.36081228  0.59379476     0.81900
N390        N  0.08815998  0.35022345  0.60794387    -0.80600
O391        O  0.85644825  0.17023988  0.71332352    -0.89200
C392        C  0.81861334  0.26702953  0.72426052     0.86800
Mg393      Mg  0.82552136  0.12847009  0.69599917     1.58100
O394        O  0.83502290  0.22030023  0.79930910    -0.88900
O395        O  0.89205516  0.18542717  0.75292919    -0.76300
C396        C  0.69190978  0.12961696  0.79513555     0.91900
O397        O  0.79778862  0.20430275  0.66749889    -0.76100
O398        O  0.70081808  0.12165085  0.76506153    -0.83600
Mg399      Mg  0.85402295  0.21451245  0.68147564     1.58000
C400        C  0.75449148  0.22877577  0.87098848     0.91800
O401        O  0.90990096  0.22939508  0.68727920    -0.81900
H402        H  0.86639150  0.19797732  0.83259107    -0.07200
C403        C  0.73591683  0.21949563  0.76673069     0.86700
O404        O  0.81881200  0.10936649  0.75107202    -0.76400
O405        O  0.83919302  0.24341481  0.72634171    -0.89100
O406        O  0.78240197  0.24018472  0.85942586    -0.81900
C407        C  0.85568139  0.30501695  0.81499175     0.91900
C408        C  0.92425505  0.25366000  0.70308999     0.91800
Mg409      Mg  0.76236275  0.16835744  0.81694297     1.58000
O410        O  0.70639585  0.15354017  0.81132992    -0.81900
O411        O  0.81872257  0.17799416  0.83103865    -0.76100
O412        O  0.86847511  0.29400622  0.78729306    -0.81900
O413        O  0.87370903  0.18145655  0.63808636    -0.83700
O414        O  0.74816545  0.08901468  0.71173290    -0.82000
C415        C  0.84127698  0.19894481  0.82137697     0.86200
O416        O  0.77735474  0.13964414  0.77244522    -0.89100
O417        O  0.76033495  0.21313926  0.78539450    -0.89200
O418        O  0.72549035  0.19797859  0.74502423    -0.76300
Mg419      Mg  0.87552281  0.23958436  0.76776229     1.58000
O420        O  0.82727750  0.29410015  0.82576742    -0.83700
H421        H  0.89425218  0.13987995  0.72864180    -0.07400
O422        O  0.78203617  0.16175416  0.69924355    -0.88900
H423        H  0.75049261  0.18351341  0.66575418    -0.07200
H424        H  0.80045414  0.10303400  0.79903681    -0.07400
C425        C  0.77558816  0.18293726  0.67704663     0.86200
C426        C  0.88144618  0.16404349  0.73121883     0.86800
C427        C  0.79861545  0.11672510  0.77527858     0.86800
H428        H  0.72343036  0.24388433  0.76865714    -0.07400
O429        O  0.79921378  0.27465599  0.74907861    -0.76400
Mg430      Mg  0.74140440  0.14336842  0.73079098     1.58000
H431        H  0.81691111  0.28132447  0.70085231    -0.07400
C432        C  0.86286678  0.15266590  0.62838919     0.91800
O433        O  0.79211392  0.08611858  0.67624264    -0.83600
C434        C  0.76350643  0.07534957  0.68666339     0.91800
O435        O  0.91543091  0.26187649  0.73313475    -0.83600
Mg436      Mg  0.79221320  0.25404176  0.80385930     1.58200
O437        O  0.83509418  0.14106733  0.64011430    -0.81900
O438        O  0.74290477  0.20066472  0.86039470    -0.83600
C439        C  0.69426624  0.96890401  0.61448032     0.79300
N440        N  0.66641227  0.97030973  0.59383208    -0.79000
C441        C  0.65119355  0.94097219  0.58313239     0.81800
N442        N  0.66350796  0.91037432  0.59411148    -0.78900
C443        C  0.69133935  0.90936345  0.61488870     0.81900
N444        N  0.70646810  0.93856114  0.62439429    -0.80600
O445        O  0.85226456  0.64040031  0.72770239    -0.89200
C446        C  0.83657019  0.67694041  0.82432520     0.86800
Mg447      Mg  0.86678746  0.67477004  0.68737544     1.58100
O448        O  0.76461154  0.65408029  0.77586700    -0.88900
O449        O  0.81527006  0.60168702  0.74090674    -0.76300
C450        C  0.75465228  0.79834125  0.68616916     0.91900
O451        O  0.89061974  0.70330632  0.76309378    -0.76100
O452        O  0.78561033  0.79167115  0.67967016    -0.83600
Mg453      Mg  0.88336590  0.64586460  0.77299920     1.58000
C454        C  0.68632936  0.72681789  0.78618742     0.91800
O455        O  0.88431683  0.59022798  0.78988835    -0.81900
H456        H  0.73439483  0.61954822  0.75389131    -0.07200
C457        C  0.78527229  0.75566792  0.77647901     0.86700
O458        O  0.81151062  0.67541670  0.66634723    -0.76400
O459        O  0.83709408  0.65581642  0.80097494    -0.89100
O460        O  0.69944503  0.69837075  0.79363073    -0.81900
C461        C  0.75189427  0.63221114  0.86197071     0.91900
C462        C  0.86701982  0.57176745  0.80998401     0.91800
Mg463      Mg  0.73793600  0.72451724  0.72430523     1.58000
O464        O  0.73747550  0.78044610  0.70695062    -0.81900
O465        O  0.73003962  0.66712235  0.73441422    -0.76100
O466        O  0.78041787  0.62221869  0.85033783    -0.81900
O467        O  0.92851148  0.63075293  0.74003766    -0.83700
O468        O  0.83979124  0.74592738  0.64607453    -0.82000
C469        C  0.74283316  0.64562686  0.75484355     0.86200
O470        O  0.78395686  0.71374911  0.69613484    -0.89100
O471        O  0.76955614  0.72954976  0.76939637    -0.89200
O472        O  0.80627176  0.76834912  0.75557816    -0.76300
Mg473      Mg  0.79910316  0.61635944  0.79531495     1.58000
O474        O  0.73684101  0.65794862  0.84975985    -0.83700
H475        H  0.84086048  0.60232400  0.69592144    -0.07400
O476        O  0.85633475  0.71575007  0.72122058    -0.88900
H477        H  0.88586872  0.75073960  0.74339488    -0.07200
H478        H  0.76165926  0.68725093  0.65874075    -0.07400
C479        C  0.87779125  0.72454890  0.74243460     0.86200
C480        C  0.83667970  0.61427634  0.72039726     0.86800
C481        C  0.78456638  0.69215829  0.67318843     0.86800
H482        H  0.78144678  0.76763068  0.80100735    -0.07400
O483        O  0.80982996  0.69394110  0.83116092    -0.76400
Mg484      Mg  0.82199829  0.75314675  0.70112238     1.58000
H485        H  0.85941634  0.68129712  0.83904620    -0.07400
C486        C  0.93582912  0.64473402  0.71191915     0.91800
O487        O  0.88480925  0.71237352  0.64773577    -0.83600
C488        C  0.86927494  0.73780582  0.63551836     0.91800
O489        O  0.83582466  0.57775929  0.81608666    -0.83600
Mg490      Mg  0.75478510  0.69526361  0.80991199     1.58200
O491        O  0.92201026  0.67273350  0.70412714    -0.81900
O492        O  0.69326418  0.74037807  0.75774531    -0.83600
C493        C  0.43015742  0.56537652  0.96874689     0.79300
N494        N  0.41855063  0.57646308  0.99907912    -0.79000
C495        C  0.43177018  0.56494491  0.02850094     0.81800
N496        N  0.45699344  0.54126707  0.02787463    -0.78900
C497        C  0.46893016  0.52951008  0.99733280     0.81900
N498        N  0.45546927  0.54170175  0.96760548    -0.80600
C499        C  0.67751126  0.30689061  0.96693424     0.79300
N500        N  0.65442083  0.33270169  0.96577891    -0.79000
C501        C  0.64262503  0.34667045  0.99549142     0.81800
N502        N  0.65447271  0.33487620  0.02605406    -0.78900
C503        C  0.67745931  0.30895456  0.02668389     0.81900
N504        N  0.68845525  0.29525871  0.99721836    -0.80600
C505        C  0.68889919  0.55668693  0.96983003     0.79300
N506        N  0.66072105  0.53659720  0.96916932    -0.79000
C507        C  0.64766006  0.52425537  0.99893006     0.81800
N508        N  0.66240346  0.53303294  0.02928158    -0.78900
C509        C  0.69062006  0.55311557  0.02954023     0.81900
N510        N  0.70362075  0.56433297  0.99989168    -0.80600
C511        C  0.53270944  0.06701162  0.11295018     0.79300
N512        N  0.56218329  0.07953487  0.12520875    -0.79000
C513        C  0.59233202  0.06520033  0.11736771     0.81800
N514        N  0.59330157  0.03786486  0.09599571    -0.78900
C515        C  0.56368670  0.02530038  0.08261480     0.81900
N516        N  0.53326769  0.03966947  0.09161579    -0.80600
C517        C  0.18641422  0.40194702  0.13697138     0.79300
N518        N  0.16458874  0.40104994  0.10997815    -0.79000
C519        C  0.15327756  0.43078554  0.09602149     0.81800
N520        N  0.16417469  0.46105393  0.10913475    -0.78900
C521        C  0.18571457  0.46146859  0.13632434     0.81900
N522        N  0.19634895  0.43198580  0.14992358    -0.80600
C523        C  0.19491614  0.06576829  0.53249411     0.79300
N524        N  0.20905145  0.07162561  0.50184471    -0.79000
C525        C  0.19676053  0.05700216  0.47339431     0.81800
N526        N  0.16983520  0.03545792  0.47541736    -0.78900
C527        C  0.15569416  0.02845136  0.50640905     0.81900
N528        N  0.16799971  0.04409796  0.53505886    -0.80600
N529        N  0.11725801  0.94039402  0.51113965    -0.37500
N530        N  0.06304727  0.88892767  0.50861018    -0.58000
N531        N  0.01156302  0.94300860  0.50975560    -0.37500
N532        N  0.06566307  0.99454831  0.50927056    -0.58000
C533        C  0.13634511  0.91200677  0.50654800     0.26100
C534        C  0.13772676  0.96770363  0.50646681     0.26100
C535        C  0.99136924  0.91570220  0.50378941     0.26100
C536        C  0.99262385  0.97137145  0.50463565     0.26100
C537        C  0.09024213  0.86796808  0.51149497     0.34700
C538        C  0.03481120  0.86930832  0.51056174     0.34700
C539        C  0.09388943  0.01419512  0.51151629     0.34700
C540        C  0.03835610  0.01552424  0.51142697     0.34700
C541        C  0.16961958  0.92143158  0.49957313    -0.22800
C542        C  0.17051101  0.95637058  0.49955312    -0.22800
C543        C  0.95899001  0.92697866  0.49528879    -0.22800
C544        C  0.95978323  0.96190251  0.49582353    -0.22800
C545        C  0.07913397  0.83475354  0.51494180    -0.23800
C546        C  0.04416251  0.83561144  0.51437640    -0.23800
C547        C  0.08440196  0.04795633  0.51464261    -0.23800
C548        C  0.04939015  0.04878895  0.51466595    -0.23800
C549        C  0.12496615  0.87779479  0.50900674    -0.19200
C550        C  0.12810094  0.00256184  0.50888470    -0.19200
C551        C  0.00363666  0.00558708  0.50848044    -0.19200
C552        C  0.00075445  0.88089288  0.50685906    -0.19200
H553        H  0.19113370  0.90487132  0.49492165     0.13700
H554        H  0.19291582  0.97161969  0.49493590     0.13700
H555        H  0.93689907  0.91169035  0.48938176     0.13700
H556        H  0.93846272  0.97841773  0.49032858     0.13700
H557        H  0.09459913  0.81212000  0.51714781     0.12000
H558        H  0.02755519  0.81379244  0.51601588     0.12000
H559        H  0.10095542  0.06982412  0.51630387     0.12000
H560        H  0.03385573  0.07143362  0.51628682     0.12000
H561        H  0.09192823  0.94106092  0.51806479     0.25300
H562        H  0.03643391  0.94235351  0.51824013     0.25300
N563        N  0.56762271  0.93452196  0.05045878    -0.37500
N564        N  0.56460925  0.98462022  0.99512686    -0.58000
N565        N  0.56932115  0.92938199  0.94454524    -0.37500
N566        N  0.56877705  0.87923699  0.99982188    -0.58000
C567        C  0.56142393  0.96317691  0.06873455     0.26100
C568        C  0.56252577  0.90750519  0.07123708     0.26100
C569        C  0.56251139  0.95603271  0.92377164     0.26100
C570        C  0.56527917  0.90041706  0.92614736     0.26100
C571        C  0.56775036  0.00615783  0.02196379     0.34700
C572        C  0.56773086  0.00347452  0.96643208     0.34700
C573        C  0.57223037  0.86058129  0.02865496     0.34700
C574        C  0.57376785  0.85792454  0.97302589     0.34700
C575        C  0.55266132  0.95424254  0.10174107    -0.22800
C576        C  0.55332336  0.91928580  0.10331486    -0.22800
C577        C  0.55449530  0.94376689  0.89156919    -0.22800
C578        C  0.55625143  0.90885965  0.89306040    -0.22800
C579        C  0.57248081  0.03895046  0.01014466    -0.23800
C580        C  0.57242123  0.03725681  0.97512281    -0.23800
C581        C  0.57902996  0.82711136  0.02000442    -0.23800
C582        C  0.58003952  0.82545206  0.98498340    -0.23800
C583        C  0.56465786  0.99717877  0.05695713    -0.19200
C584        C  0.56735117  0.87262756  0.06262845    -0.19200
C585        C  0.57056930  0.86663139  0.93792675    -0.19200
C586        C  0.56463959  0.99112415  0.93248282    -0.19200
H587        H  0.54653889  0.97115142  0.12264500     0.13700
H588        H  0.54789658  0.90430624  0.12572593     0.13700
H589        H  0.54818752  0.95842068  0.86915518     0.13700
H590        H  0.55151034  0.89168282  0.87203274     0.13700
H591        H  0.57534626  0.06183451  0.02517267     0.12000
H592        H  0.57526612  0.05855660  0.95801729     0.12000
H593        H  0.58251167  0.80590155  0.03710390     0.16800
H594        H  0.58442336  0.80274575  0.97004100     0.12000
H595        H  0.57640265  0.93354603  0.02564741     0.25300
H596        H  0.57775998  0.93094384  0.96945516     0.25300
N597        N  0.06365721  0.42919752  0.06036895    -0.37500
N598        N  0.11626236  0.43453935  0.00685772    -0.58000
N599        N  0.06213263  0.43912552  0.95499376    -0.37500
N600        N  0.00971561  0.43466909  0.00864560    -0.58000
C601        C  0.09193909  0.43152145  0.08010950     0.26100
C602        C  0.03604750  0.43207049  0.08102842     0.26100
C603        C  0.08980916  0.43956773  0.93427172     0.26100
C604        C  0.03379849  0.43883194  0.93514318     0.26100
C605        C  0.13702964  0.43110512  0.03424029     0.34700
C606        C  0.13628088  0.43519392  0.97870084     0.34700
C607        C  0.98963548  0.43307839  0.03669136     0.34700
C608        C  0.98885813  0.43598962  0.98117876     0.34700
C609        C  0.08204670  0.43508075  0.11390304    -0.22800
C610        C  0.04703729  0.43539232  0.11447326    -0.22800
C611        C  0.07874214  0.44018030  0.90065749    -0.22800
C612        C  0.04365884  0.43966339  0.90122099    -0.22800
C613        C  0.17058486  0.42966000  0.02338235    -0.23800
C614        C  0.17012093  0.43223752  0.98838089    -0.23800
C615        C  0.95572817  0.43372610  0.02698210    -0.23800
C616        C  0.95522131  0.43552479  0.99200240    -0.23800
C617        C  0.12651535  0.43044210  0.06898692    -0.19200
C618        C  0.00113387  0.43183353  0.07103719    -0.19200
C619        C  0.99925525  0.43735512  0.94639889    -0.19200
C620        C  0.12479116  0.43849283  0.94435803    -0.19200
H621        H  0.09833631  0.43747156  0.13601828     0.13700
H622        H  0.03147809  0.43810090  0.13707993     0.13700
H623        H  0.09429236  0.44044327  0.87789551     0.13700
H624        H  0.02729298  0.43960841  0.87903658     0.13700
H625        H  0.19311864  0.42716067  0.03905110     0.12000
H626        H  0.19225347  0.43198024  0.97195984     0.12000
H627        H  0.93359074  0.43310052  0.04338558     0.12000
H628        H  0.93255621  0.43647443  0.97635339     0.12000
H629        H  0.06327588  0.42511439  0.03439607     0.25300
H630        H  0.06255629  0.43891880  0.98121485     0.25300
N631        N  0.60857726  0.43676296  0.99428714    -0.37500
N632        N  0.55719717  0.49109144  0.99729045    -0.58000
N633        N  0.50306950  0.43968011  0.99506515    -0.37500
N634        N  0.55451663  0.38542270  0.99555992    -0.58000
C635        C  0.62885627  0.46392304  0.00055215     0.26100
C636        C  0.62749039  0.40829228  0.99898963     0.26100
C637        C  0.48408692  0.46803911  0.00006972     0.26100
C638        C  0.48269189  0.41236107  0.00004287     0.26100
C639        C  0.58549813  0.51055586  0.99470051     0.34700
C640        C  0.53001633  0.51205121  0.99403215     0.34700
C641        C  0.58167628  0.36457924  0.99128484     0.34700
C642        C  0.52619670  0.36610400  0.99213311     0.34700
C643        C  0.66127157  0.45244406  0.00868500    -0.22800
C644        C  0.66039952  0.41754773  0.00770460    -0.22800
C645        C  0.45099129  0.45854630  0.00791740    -0.22800
C646        C  0.45012730  0.42359159  0.00794380    -0.22800
C647        C  0.57619996  0.54419631  0.99027458    -0.23800
C648        C  0.54117559  0.54513789  0.98980548    -0.23800
C649        C  0.57048940  0.33171883  0.98550615    -0.23800
C650        C  0.53549737  0.33266586  0.98608956    -0.23800
C651        C  0.61957367  0.49879392  0.99796455    -0.19200
C652        C  0.61640503  0.37418106  0.99466574    -0.19200
C653        C  0.49209534  0.37763596  0.99615261    -0.19200
C654        C  0.49528574  0.50224145  0.99661499    -0.19200
H655        H  0.68345450  0.46757679  0.01464188     0.13700
H656        H  0.68172572  0.40091323  0.01279719     0.13700
H657        H  0.42952451  0.47505828  0.01293835     0.13700
H658        H  0.42785871  0.40824822  0.01291029     0.13700
H659        H  0.59289175  0.56588454  0.98792930     0.12000
H660        H  0.52570397  0.56770685  0.98705360     0.12000
H661        H  0.58591053  0.30925307  0.98170709     0.12000
H662        H  0.51884952  0.31105210  0.98279455     0.12000
H663        H  0.58367076  0.43763232  0.98586518     0.25300
H664        H  0.52812836  0.43904664  0.98715059     0.25300
N665        N  0.05552535  0.49755928  0.49809299    -0.37500
N666        N  0.05692464  0.44764563  0.55342360    -0.58000
N667        N  0.05694363  0.39229859  0.50266962    -0.37500
N668        N  0.05897362  0.44223069  0.44734805    -0.58000
C669        C  0.05873875  0.51872556  0.52523357     0.26100
C670        C  0.06055624  0.51595653  0.46936957     0.26100
C671        C  0.06158837  0.37406166  0.53156602     0.26100
C672        C  0.06168039  0.37123293  0.47567383     0.26100
C673        C  0.05327451  0.47612458  0.57254232     0.34700
C674        C  0.05473057  0.42089529  0.57490444     0.34700
C675        C  0.05635569  0.46897036  0.42585413     0.34700
C676        C  0.05590760  0.41366552  0.42823620     0.34700
C677        C  0.06528282  0.55124373  0.51345801    -0.22800
C678        C  0.06646623  0.54949199  0.47840548    -0.22800
C679        C  0.06897498  0.34074131  0.52279561    -0.22800
C680        C  0.06897199  0.33893865  0.48771288    -0.22800
C681        C  0.04919419  0.46739159  0.60648455    -0.23800
C682        C  0.05011111  0.43256717  0.60798724    -0.23800
C683        C  0.05211038  0.45722174  0.39276985    -0.23800
C684        C  0.05176142  0.42235682  0.39428654    -0.23800
C685        C  0.05524120  0.50997706  0.56029490    -0.19200
C686        C  0.05893954  0.50383195  0.43516182    -0.19200
C687        C  0.05841836  0.37981730  0.44053564    -0.19200
C688        C  0.05817619  0.38611227  0.56564850    -0.19200
H689        H  0.06882245  0.57401201  0.52851169     0.13700
H690        H  0.07105273  0.57064699  0.46150543     0.13700
H691        H  0.07369330  0.31975775  0.53989093     0.13700
H692        H  0.07367059  0.31625778  0.47283766     0.13700
H693        H  0.04619033  0.48433568  0.62802944     0.12000
H694        H  0.04792704  0.41759437  0.63095685     0.12000
H695        H  0.04964072  0.47219028  0.36982346     0.12000
H696        H  0.04908808  0.40536596  0.37274389     0.12000
H697        H  0.04906597  0.47217641  0.49903038     0.25300
H698        H  0.04946259  0.41741725  0.50147606     0.25300
N699        N  0.61352225  0.94623293  0.49460780    -0.37500
N700        N  0.56011442  0.94710677  0.44203662    -0.58000
N701        N  0.50779325  0.94938122  0.49546786    -0.37500
N702        N  0.56124196  0.94459152  0.54799704    -0.58000
C703        C  0.63253257  0.94043852  0.46628029     0.26100
C704        C  0.63307470  0.93897271  0.52217591     0.26100
C705        C  0.48794373  0.94426649  0.46758179     0.26100
C706        C  0.48844364  0.94362870  0.52352825     0.26100
C707        C  0.58781921  0.95100614  0.42180594     0.34700
C708        C  0.53228386  0.95213103  0.42219728     0.34700
C709        C  0.58926646  0.94676797  0.56810861     0.34700
C710        C  0.53375809  0.94865932  0.56851787     0.34700
C711        C  0.66475894  0.92981835  0.47604540    -0.22800
C712        C  0.66511517  0.92892900  0.51113674    -0.22800
C713        C  0.45536531  0.93572517  0.47820378    -0.22800
C714        C  0.45568536  0.93535642  0.51332818    -0.22800
C715        C  0.57746029  0.95829242  0.38884906    -0.23800
C716        C  0.54242860  0.95893760  0.38908350    -0.23800
C717        C  0.57948848  0.95183813  0.60166341    -0.23800
C718        C  0.54447089  0.95302987  0.60193507    -0.23800
C719        C  0.62220744  0.94572192  0.43190952    -0.19200
C720        C  0.62346696  0.94237534  0.55703158    -0.19200
C721        C  0.49909485  0.94648432  0.55810873    -0.19200
C722        C  0.49788143  0.94830614  0.43287554    -0.19200
H723        H  0.68597536  0.92347600  0.45962117     0.13700
H724        H  0.68667131  0.92175101  0.52671176     0.13700
H725        H  0.43346212  0.93042259  0.46235063     0.13700
H726        H  0.43415860  0.92959574  0.52951070     0.13700
H727        H  0.59345037  0.96220898  0.36675401     0.12000
H728        H  0.52629179  0.96347248  0.36721402     0.12000
H729        H  0.59585509  0.95404957  0.62374075     0.12000
H730        H  0.52869254  0.95634712  0.62431085     0.12000
H731        H  0.58912347  0.95613546  0.49510443     0.25300
H732        H  0.53275712  0.95770354  0.49544254     0.25300
C733        C  0.75508563  0.59192164  0.91082637    -0.14200
C734        C  0.73542260  0.61237907  0.88924820     0.07900
C735        C  0.69969416  0.61156064  0.89216839    -0.14200
C736        C  0.68399839  0.59114504  0.91675494    -0.14200
C737        C  0.70386968  0.57177076  0.93908219     0.07900
C738        C  0.73947704  0.57218741  0.93576712    -0.14200
H739        H  0.78258979  0.59172196  0.90888119     0.11900
H740        H  0.68391216  0.62659793  0.87534259     0.11900
H741        H  0.65656218  0.59175912  0.91941695     0.11900
H742        H  0.75529536  0.55779313  0.95314054     0.11900
C743        C  0.68620536  0.85470916  0.64697681    -0.14200
C744        C  0.70602420  0.87770280  0.62839095     0.07900
C745        C  0.74161600  0.87424869  0.62873530    -0.14200
C746        C  0.75726469  0.84878823  0.64775192    -0.14200
C747        C  0.73773298  0.82635789  0.66740593     0.07900
C748        C  0.70194711  0.82929258  0.66646929    -0.14200
H749        H  0.65878082  0.85743557  0.64775819     0.11900
H750        H  0.75745870  0.89205862  0.61499432     0.11900
H751        H  0.78477688  0.84702056  0.64743140     0.11900
H752        H  0.68612733  0.81200289  0.68084452     0.11900
C753        C  0.72222603  0.30373801  0.92275838    -0.14200
C754        C  0.69207480  0.29071402  0.93659564     0.07900
C755        C  0.68269027  0.25721780  0.92905754    -0.14200
C756        C  0.70324397  0.23689870  0.90825297    -0.14200
C757        C  0.73397716  0.24952361  0.89500455     0.07900
C758        C  0.74296391  0.28338766  0.90206177    -0.14200
H759        H  0.73066883  0.32902647  0.92952394     0.11900
H760        H  0.66027185  0.24624936  0.94071409     0.11900
H761        H  0.69531087  0.21110881  0.90300147     0.11900
H762        H  0.76617578  0.29409732  0.89183456     0.11900
C763        C  0.76422500  0.02535234  0.64699942    -0.14200
C764        C  0.74597368  0.04810183  0.66760778     0.07900
C765        C  0.71012247  0.04678292  0.66747458    -0.14200
C766        C  0.69288561  0.02274690  0.64767895    -0.14200
C767        C  0.71122394  0.99923589  0.62818910     0.07900
C768        C  0.74699554  0.00079963  0.62789933    -0.14200
H769        H  0.79177362  0.02610637  0.64620569     0.11900
H770        H  0.69534421  0.06452702  0.68255576     0.11900
H771        H  0.66537731  0.02141032  0.64894801     0.11900
H772        H  0.76162523  0.98237371  0.61349469     0.11900
C773        C  0.99221698  0.31926126  0.68565746    -0.14200
C774        C  0.99688079  0.31584769  0.65035907     0.07900
C775        C  0.97743668  0.29211244  0.63229581    -0.14200
C776        C  0.95435939  0.27129005  0.64957698    -0.14200
C777        C  0.95026194  0.27408326  0.68517369     0.07900
C778        C  0.96891905  0.29884903  0.70286186    -0.14200
H779        H  0.00773489  0.33684318  0.70014562     0.11900
H780        H  0.98152955  0.28833449  0.60525127     0.11900
H781        H  0.93987531  0.25287979  0.63508304     0.11900
H782        H  0.96600850  0.30203399  0.73012467     0.11900
C783        C  0.98295092  0.57451107  0.66522557    -0.14200
C784        C  0.99739455  0.59219337  0.63790815     0.07900
C785        C  0.99092254  0.62708323  0.63461959    -0.14200
C786        C  0.97095220  0.64421850  0.65862416    -0.14200
C787        C  0.95779109  0.62693029  0.68693427     0.07900
C788        C  0.96339703  0.59173808  0.68960926    -0.14200
H789        H  0.98873004  0.54790080  0.66897093     0.11900
H790        H  0.00289957  0.64142973  0.61440270     0.11900
H791        H  0.96667456  0.67119185  0.65558077     0.11900
H792        H  0.95297354  0.57756568  0.71077161     0.11900
C793        C  0.35857360  0.59233409  0.91233828    -0.14200
C794        C  0.37335278  0.61925645  0.89424624     0.07900
C795        C  0.40862294  0.62492568  0.89757865    -0.14200
C796        C  0.42834742  0.60489904  0.91950685    -0.14200
C797        C  0.41315633  0.57885367  0.93835020     0.07900
C798        C  0.37822063  0.57260699  0.93438390    -0.14200
H799        H  0.33165511  0.58691756  0.90999699     0.11900
H800        H  0.42094274  0.64501465  0.88343601     0.11900
H801        H  0.45500103  0.61090676  0.92313842     0.11900
H802        H  0.36582847  0.55333800  0.94960200     0.11900
C803        C  0.15092624  0.64346090  0.64333462    -0.14200
C804        C  0.16562135  0.62825071  0.67219113     0.07900
C805        C  0.15670776  0.59463481  0.68026244    -0.14200
C806        C  0.13329350  0.57686811  0.66021027    -0.14200
C807        C  0.11838455  0.59236304  0.63181639     0.07900
C808        C  0.12724386  0.62577289  0.62357997    -0.14200
H809        H  0.15748255  0.66914856  0.63617661     0.11900
H810        H  0.16786059  0.58199804  0.70204574     0.11900
H811        H  0.12555548  0.55162542  0.66780832     0.11900
H812        H  0.11484578  0.63857884  0.60256536     0.11900
C813        C  0.41420819  0.85738746  0.62480404    -0.14200
C814        C  0.43121932  0.88254400  0.64341319     0.07900
C815        C  0.43078684  0.88121912  0.67920008    -0.14200
C816        C  0.41292467  0.85574907  0.69621178    -0.14200
C817        C  0.39438008  0.83148222  0.67777407     0.07900
C818        C  0.39574459  0.83217416  0.64184668    -0.14200
H819        H  0.41355932  0.85838051  0.59723094     0.11900
H820        H  0.44332182  0.90076774  0.69404173     0.11900
H821        H  0.41285800  0.85561423  0.72380429     0.11900
H822        H  0.38234387  0.81332252  0.62688512     0.11900
C823        C  0.19110986  0.10979574  0.57803381    -0.14200
C824        C  0.20961961  0.08412494  0.56157291     0.07900
C825        C  0.24490613  0.08194434  0.56680602    -0.14200
C826        C  0.26152665  0.10495260  0.58811580    -0.14200
C827        C  0.24332233  0.13121453  0.60405898     0.07900
C828        C  0.20786374  0.13327972  0.59905719    -0.14200
H829        H  0.16409903  0.11267416  0.57329589     0.11900
H830        H  0.25981195  0.06298718  0.55340913     0.11900
H831        H  0.28876047  0.10250442  0.59168624     0.11900
H832        H  0.19309097  0.15295977  0.61147725     0.11900
C833        C  0.14430224  0.29394399  0.70387489    -0.14200
C834        C  0.16823006  0.27584301  0.68452164     0.07900
C835        C  0.16779761  0.27906030  0.64875510    -0.14200
C836        C  0.14325859  0.29924819  0.63263665    -0.14200
C837        C  0.11852347  0.31608161  0.65204539     0.07900
C838        C  0.11950957  0.31354701  0.68777316    -0.14200
H839        H  0.14431436  0.29238528  0.73142563     0.11900
H840        H  0.18648544  0.26598653  0.63323414     0.11900
H841        H  0.14250312  0.30024830  0.60506991     0.11900
H842        H  0.10031155  0.32598274  0.70322915     0.11900
C843        C  0.39719692  0.02311047  0.62110968    -0.14200
C844        C  0.42048461  0.00366235  0.63983874     0.07900
C845        C  0.42218520  0.00799139  0.67532575    -0.14200
C846        C  0.40075749  0.03094154  0.69197001    -0.14200
C847        C  0.37653384  0.04967118  0.67358519     0.07900
C848        C  0.37527454  0.04586653  0.63787516    -0.14200
H849        H  0.39477026  0.01943820  0.59385923     0.11900
H850        H  0.43943444  0.99264059  0.69036060     0.11900
H851        H  0.40275519  0.03355142  0.71937861     0.11900
H852        H  0.35731856  0.06043942  0.62292343     0.11900
C853        C  0.38456989  0.30628816  0.92318576    -0.14200
C854        C  0.41576322  0.29617015  0.93718550     0.07900
C855        C  0.42864858  0.26386159  0.92952368    -0.14200
C856        C  0.41015772  0.24156053  0.90887146    -0.14200
C857        C  0.37822122  0.25110231  0.89582623     0.07900
C858        C  0.36604447  0.28406215  0.90248424    -0.14200
H859        H  0.37363118  0.33065254  0.92989441     0.11900
H860        H  0.45206309  0.25516491  0.94120733     0.11900
H861        H  0.42052365  0.21658822  0.90377009     0.11900
H862        H  0.34182853  0.29244872  0.89232784     0.11900
C863        C  0.70680379  0.60600461  0.10741585    -0.14200
C864        C  0.74255430  0.60401213  0.11001660     0.07900
C865        C  0.76010860  0.58138570  0.08858031    -0.14200
C866        C  0.74251799  0.56253192  0.06404059    -0.14200
C867        C  0.70698066  0.56524630  0.06095679     0.07900
C868        C  0.68917260  0.58665365  0.08321440    -0.14200
H869        H  0.69240366  0.62270425  0.12398113     0.11900
H870        H  0.78750757  0.57881214  0.09024169     0.11900
H871        H  0.75680553  0.54671784  0.04649912     0.11900
H872        H  0.66191765  0.58990143  0.08056258     0.11900
C873        C  0.97165926  0.59643145  0.30055861    -0.14200
C874        C  0.95840736  0.62516174  0.31728178     0.07900
C875        C  0.96591705  0.63002401  0.35200670    -0.14200
C876        C  0.98703341  0.60723180  0.36932509    -0.14200
C877        C  0.00116229  0.57933244  0.35221914     0.07900
C878        C  0.99324073  0.57402734  0.31775955    -0.14200
H879        H  0.96601245  0.59171129  0.27395226     0.11900
H880        H  0.95562665  0.65156771  0.36576372     0.11900
H881        H  0.99397448  0.61249067  0.39552681     0.11900
H882        H  0.00497251  0.55334138  0.30379560     0.11900
C883        C  0.72392913  0.86496196  0.36719033    -0.14200
C884        C  0.69604656  0.88095216  0.35179645     0.07900
C885        C  0.68754271  0.87256261  0.31809780    -0.14200
C886        C  0.70656767  0.84846551  0.30002136    -0.14200
C887        C  0.73504923  0.83287808  0.31506236     0.07900
C888        C  0.74323492  0.84110980  0.34904726    -0.14200
H889        H  0.73174682  0.87215322  0.39267644     0.11900
H890        H  0.66693937  0.88568010  0.30533468     0.11900
H891        H  0.69929666  0.84245908  0.27408194     0.11900
H892        H  0.76467145  0.82922140  0.36162804     0.11900
C893        C  0.64046053  0.06140776  0.15863935    -0.14200
C894        C  0.62271374  0.07974148  0.13375020     0.07900
C895        C  0.62857730  0.11472870  0.13068759    -0.14200
C896        C  0.65168247  0.13121474  0.15212491    -0.14200
C897        C  0.66890008  0.11320744  0.17774099     0.07900
C898        C  0.66327823  0.07801550  0.18055354    -0.14200
H899        H  0.63541376  0.03464872  0.16222373     0.11900
H900        H  0.61436382  0.12953052  0.11230513     0.11900
H901        H  0.65565824  0.15820738  0.14896965     0.11900
H902        H  0.67655513  0.06330191  0.19966552     0.11900
C903        C  0.70604683  0.24219611  0.08793970    -0.14200
C904        C  0.73058505  0.25955332  0.10731124     0.07900
C905        C  0.73454665  0.29475543  0.10226918    -0.14200
C906        C  0.71490057  0.31192952  0.07790371    -0.14200
C907        C  0.69101875  0.29419989  0.05822674     0.07900
C908        C  0.68674535  0.25928114  0.06352326    -0.14200
H909        H  0.70200551  0.21524641  0.09132358     0.11900
H910        H  0.75291679  0.30901383  0.11704905     0.11900
H911        H  0.71948903  0.33861505  0.07328881     0.11900
H912        H  0.66920010  0.24495117  0.04779463     0.11900
C913        C  0.75901446  0.02912461  0.34617692    -0.14200
C914        C  0.74907666  0.04153061  0.31408235     0.07900
C915        C  0.71584166  0.03481274  0.30253138    -0.14200
C916        C  0.69365746  0.01491614  0.32194660    -0.14200
C917        C  0.70406199  0.00180960  0.35344974     0.07900
C918        C  0.73676022  0.00934960  0.36555816    -0.14200
H919        H  0.78419985  0.03425510  0.35613798     0.11900
H920        H  0.70714453  0.04445625  0.27822635     0.11900
H921        H  0.66902265  0.00820491  0.31153869     0.11900
H922        H  0.74575547  0.99828644  0.38914805     0.11900
C923        C  0.23344973  0.54356969  0.14742152    -0.14200
C924        C  0.23534130  0.54584495  0.18322219     0.07900
C925        C  0.21815530  0.52176911  0.20300551    -0.14200
C926        C  0.20042327  0.49534323  0.18738392    -0.14200
C927        C  0.19878163  0.49289129  0.15168785     0.07900
C928        C  0.21503228  0.51741586  0.13176102    -0.14200
H929        H  0.24591993  0.56221924  0.13153310     0.11900
H930        H  0.21879526  0.52311853  0.23056851     0.11900
H931        H  0.18844117  0.47631581  0.20322346     0.11900
H932        H  0.21471044  0.51550183  0.10422635     0.11900
C933        C  0.36390272  0.58896538  0.09026150    -0.14200
C934        C  0.37811899  0.61787041  0.10574402     0.07900
C935        C  0.41247963  0.62571308  0.09914987    -0.14200
C936        C  0.43158478  0.60603212  0.07632849    -0.14200
C937        C  0.41676314  0.57807090  0.06001291     0.07900
C938        C  0.38298025  0.56945179  0.06745339    -0.14200
H939        H  0.33779196  0.58174484  0.09524615     0.11900
H940        H  0.42445977  0.64737547  0.11118656     0.11900
H941        H  0.45725775  0.61374757  0.06995293     0.11900
H942        H  0.37081469  0.54857716  0.05421009     0.11900
C943        C  0.15109418  0.59494375  0.30214977    -0.14200
C944        C  0.16610875  0.62234081  0.31943265     0.07900
C945        C  0.16019641  0.62602847  0.35466003    -0.14200
C946        C  0.13856407  0.60360033  0.37185442    -0.14200
C947        C  0.12241583  0.57725789  0.35408577     0.07900
C948        C  0.12919322  0.57289414  0.31924001    -0.14200
H949        H  0.15548550  0.59111596  0.27516728     0.11900
H950        H  0.17197171  0.64648872  0.36884841     0.11900
H951        H  0.13268061  0.60817325  0.39844412     0.11900
H952        H  0.11602620  0.55343759  0.30483571     0.11900
C953        C  0.38432605  0.87404733  0.36873634    -0.14200
C954        C  0.41775167  0.88293026  0.35987947     0.07900
C955        C  0.43254007  0.86841134  0.33082497    -0.14200
C956        C  0.41403332  0.84582812  0.31051556    -0.14200
C957        C  0.38029392  0.83726776  0.31890253     0.07900
C958        C  0.36588099  0.85108286  0.34869451    -0.14200
H959        H  0.37195670  0.88615998  0.39024727     0.11900
H960        H  0.45773678  0.87610549  0.32274174     0.11900
H961        H  0.42612833  0.83524303  0.28807635     0.11900
H962        H  0.34011972  0.84471996  0.35611364     0.11900
C963        C  0.21122605  0.10680390  0.39421750    -0.14200
C964        C  0.24694440  0.10515864  0.39164029     0.07900
C965        C  0.26497297  0.08296731  0.41287483    -0.14200
C966        C  0.24780619  0.06449850  0.43779532    -0.14200
C967        C  0.21231271  0.06714117  0.44117146     0.07900
C968        C  0.19400118  0.08774049  0.41870427    -0.14200
H969        H  0.19662518  0.12306660  0.37746699     0.11900
H970        H  0.29239759  0.08080302  0.41098546     0.11900
H971        H  0.26238829  0.04936453  0.45560291     0.11900
H972        H  0.16674918  0.09084546  0.42160765     0.11900
C973        C  0.45064750  0.08021984  0.16063139    -0.14200
C974        C  0.44937785  0.11594339  0.16264994     0.07900
C975        C  0.47357893  0.13491717  0.14465960    -0.14200
C976        C  0.49934375  0.11861773  0.12637632    -0.14200
C977        C  0.50108686  0.08303046  0.12504166     0.07900
C978        C  0.47620135  0.06389764  0.14178316    -0.14200
H979        H  0.43199004  0.06485953  0.17377233     0.11900
H980        H  0.47308618  0.16238040  0.14534898     0.11900
H981        H  0.51871086  0.13384446  0.11410490     0.11900
H982        H  0.47760671  0.03645143  0.14181561     0.11900
C983        C  0.21085327  0.34343227  0.20703219    -0.14200
C984        C  0.24298694  0.33218607  0.19581185     0.07900
C985        C  0.25309097  0.33961990  0.16226116    -0.14200
C986        C  0.23230093  0.35933184  0.14110030    -0.14200
C987        C  0.20093091  0.37164084  0.15292752     0.07900
C988        C  0.19018756  0.36314580  0.18587697    -0.14200
H989        H  0.20193609  0.33763551  0.23246773     0.11900
H990        H  0.27738147  0.33083328  0.15259564     0.11900
H991        H  0.24168473  0.36681004  0.11628064     0.11900
H992        H  0.16668837  0.37351912  0.19596327     0.11900
C993        C  0.37874922  0.31472774  0.06886333    -0.14200
C994        C  0.41117383  0.30390061  0.05860067     0.07900
C995        C  0.42496963  0.27429446  0.07263228    -0.14200
C996        C  0.40660859  0.25571101  0.09668095    -0.14200
C997        C  0.37395035  0.26633585  0.10700569     0.07900
C998        C  0.36041487  0.29633249  0.09314279    -0.14200
H999        H  0.36714868  0.33675801  0.05717234     0.11900
H1000       H  0.44936936  0.26481184  0.06390727     0.11900
H1001       H  0.41800367  0.23296521  0.10711518     0.11900
H1002       H  0.33549111  0.30536806  0.10073375     0.11900
C1003       C  0.43003991  0.01145154  0.31782770    -0.14200
C1004       C  0.41836632  0.00336621  0.35058312     0.07900
C1005       C  0.38620950  0.01496405  0.36092357    -0.14200
C1006       C  0.36579932  0.03390737  0.33875889    -0.14200
C1007       C  0.37695730  0.04121359  0.30552933     0.07900
C1008       C  0.40964763  0.03034138  0.29556566    -0.14200
H1009       H  0.45410107  0.00142768  0.30877572     0.11900
H1010       H  0.37608012  0.00767131  0.38550637     0.11900
H1011       H  0.34099856  0.04227230  0.34744977     0.11900
H1012       H  0.41928624  0.03595268  0.27035276     0.11900
C1013       C  0.98761098  0.26531681  0.37236505    -0.14200
C1014       C  0.99688435  0.29887857  0.36514062     0.07900
C1015       C  0.98273854  0.31501411  0.33667877    -0.14200
C1016       C  0.96000231  0.29757879  0.31541530    -0.14200
C1017       C  0.95110321  0.26366849  0.32228589     0.07900
C1018       C  0.96472215  0.24798714  0.35140218    -0.14200
H1019       H  0.99922492  0.25204672  0.39353903     0.11900
H1020       H  0.99064672  0.34043592  0.32992315     0.11900
H1021       H  0.94959834  0.31057052  0.29347363     0.11900
H1022       H  0.95813618  0.22208895  0.35773168     0.11900
C1023       C  0.11761883  0.25526605  0.36910124    -0.14200
C1024       C  0.11831953  0.29074568  0.37310799     0.07900
C1025       C  0.14578006  0.30903364  0.35982401    -0.14200
C1026       C  0.17133577  0.29219777  0.34146335    -0.14200
C1027       C  0.17011426  0.25674327  0.33659224     0.07900
C1028       C  0.14343592  0.23838101  0.35138441    -0.14200
H1029       H  0.09643615  0.24066901  0.37889704     0.11900
H1030       H  0.14652863  0.33641658  0.36205627     0.11900
H1031       H  0.19202740  0.30696882  0.33094552     0.11900
H1032       H  0.14204597  0.21108714  0.34848884     0.11900
C1033       C  0.48878149  0.80225503  0.84193022    -0.14200
C1034       C  0.50787885  0.78385090  0.86568572     0.07900
C1035       C  0.50233605  0.74884328  0.86899850    -0.14200
C1036       C  0.47794895  0.73241450  0.84902652    -0.14200
C1037       C  0.45920165  0.75055074  0.82463864     0.07900
C1038       C  0.46471442  0.78573119  0.82146924    -0.14200
H1039       H  0.49365766  0.82901122  0.83806046     0.11900
H1040       H  0.51772470  0.73401713  0.88638823     0.11900
H1041       H  0.47406925  0.70543375  0.85238631     0.11900
H1042       H  0.45026761  0.80055534  0.80331256     0.11900
C1043       C  0.66075950  0.78095493  0.80832308    -0.14200
C1044       C  0.66597799  0.74577457  0.81184771     0.07900
C1045       C  0.65392602  0.72970536  0.84138208    -0.14200
C1046       C  0.63525074  0.74798039  0.86569355    -0.14200
C1047       C  0.62893608  0.78283826  0.86148000     0.07900
C1048       C  0.64250922  0.79929259  0.83294088    -0.14200
H1049       H  0.67032598  0.79426706  0.78621205     0.11900
H1050       H  0.65793440  0.70278316  0.84514161     0.11900
H1051       H  0.62386091  0.73445894  0.88680413     0.11900
H1052       H  0.63679255  0.82578559  0.82838072     0.11900
C1053       C  0.23189402  0.36561072  0.88004402    -0.14200
C1054       C  0.20265015  0.37881925  0.86445786     0.07900
C1055       C  0.19438427  0.36862564  0.83125176    -0.14200
C1056       C  0.21507115  0.34572838  0.81367609    -0.14200
C1057       C  0.24484478  0.33286445  0.82878430     0.07900
C1058       C  0.25282394  0.34270650  0.86238196    -0.14200
H1059       H  0.23936836  0.37424349  0.90517807     0.11900
H1060       H  0.17252691  0.37947618  0.81841650     0.11900
H1061       H  0.20787072  0.33839650  0.78805828     0.11900
H1062       H  0.27533920  0.33292837  0.87491021     0.11900
C1063       C  0.20960300  0.52417970  0.87278668    -0.14200
C1064       C  0.19111765  0.49939815  0.85515928     0.07900
C1065       C  0.19059587  0.50011360  0.81932090    -0.14200
C1066       C  0.20873323  0.52484029  0.80136565    -0.14200
C1067       C  0.22861127  0.54875803  0.81891845     0.07900
C1068       C  0.22837551  0.54847207  0.85484899    -0.14200
H1069       H  0.21114748  0.52353193  0.90033290     0.11900
H1070       H  0.17706070  0.48070383  0.80519889     0.11900
H1071       H  0.20794011  0.52467505  0.77378060     0.11900
H1072       H  0.24285915  0.56700890  0.86917481     0.11900
C1073       C  0.61940893  0.06857533  0.81020039    -0.14200
C1074       C  0.61933849  0.06568096  0.84590645     0.07900
C1075       C  0.64333268  0.08394373  0.86493352    -0.14200
C1076       C  0.66627115  0.10564965  0.84843462    -0.14200
C1077       C  0.66581610  0.10901600  0.81265740     0.07900
C1078       C  0.64259176  0.08970157  0.79373176    -0.14200
H1079       H  0.60069624  0.05514192  0.79504219     0.11900
H1080       H  0.64319354  0.08275291  0.89250315     0.11900
H1081       H  0.68450360  0.11965768  0.86363690     0.11900
H1082       H  0.64197822  0.09135023  0.76619536     0.11900
C1083       C  0.49119248  0.05786617  0.81642785    -0.14200
C1084       C  0.49792180  0.06158581  0.85134989     0.07900
C1085       C  0.47981312  0.08591505  0.87013017    -0.14200
C1086       C  0.45585195  0.10679122  0.85398592    -0.14200
C1087       C  0.44956723  0.10358988  0.81876098     0.07900
C1088       C  0.46708110  0.07838426  0.80035716    -0.14200
H1089       H  0.50573701  0.03997765  0.80126626     0.11900
H1090       H  0.48560823  0.09007554  0.89680047     0.11900
H1091       H  0.44246988  0.12561488  0.86904097     0.11900
H1092       H  0.46259536  0.07485051  0.77335288     0.11900
C1093       C  0.93552293  0.51978578  0.85424708    -0.14200
C1094       C  0.91582757  0.49475315  0.87007367     0.07900
C1095       C  0.88031551  0.49507297  0.86562406    -0.14200
C1096       C  0.86470100  0.51947636  0.84537155    -0.14200
C1097       C  0.88421154  0.54414305  0.82879119     0.07900
C1098       C  0.91982190  0.54423726  0.83355475    -0.14200
H1099       H  0.96297849  0.51958566  0.85673293     0.11900
H1100       H  0.86457663  0.47578386  0.87731695     0.11900
H1101       H  0.83727749  0.51892143  0.84258435     0.11900
H1102       H  0.93547204  0.56339854  0.82158088     0.11900
C1103       C  0.87883501  0.36945329  0.88324284    -0.14200
C1104       C  0.91386287  0.37388136  0.87754736     0.07900
C1105       C  0.92977130  0.35504815  0.85175026    -0.14200
C1106       C  0.91070219  0.33309960  0.83111926    -0.14200
C1107       C  0.87535786  0.32944728  0.83603734     0.07900
C1108       C  0.85984581  0.34712338  0.86303215    -0.14200
H1109       H  0.86582970  0.38468637  0.90224142     0.11900
H1110       H  0.95645124  0.35903203  0.84607346     0.11900
H1111       H  0.92359880  0.31925734  0.81103036     0.11900
H1112       H  0.83283595  0.34449788  0.86786355     0.11900
C1113       C  0.89580657  0.35865170  0.13433839    -0.14200
C1114       C  0.92440991  0.37138884  0.15139838     0.07900
C1115       C  0.92978887  0.36247032  0.18558399    -0.14200
C1116       C  0.90636331  0.34203750  0.20280540    -0.14200
C1117       C  0.87660402  0.33086234  0.18636337     0.07900
C1118       C  0.87207933  0.33860298  0.15165595    -0.14200
H1119       H  0.89055793  0.36622951  0.10834899     0.11900
H1120       H  0.95114297  0.37298338  0.19951221     0.11900
H1121       H  0.91097087  0.33598364  0.22931203     0.11900
H1122       H  0.84981823  0.32974277  0.13802945     0.11900
C1123       C  0.93101900  0.49598224  0.19165910    -0.14200
C1124       C  0.92946783  0.49238265  0.15606853     0.07900
C1125       C  0.90835787  0.51400334  0.13728001    -0.14200
C1126       C  0.88849050  0.53842447  0.15397588    -0.14200
C1127       C  0.88981860  0.54193404  0.18969549     0.07900
C1128       C  0.91181244  0.52088300  0.20829017    -0.14200
H1129       H  0.94650137  0.47885202  0.20666609     0.11900
H1130       H  0.90598609  0.51089010  0.10994977     0.11900
H1131       H  0.87226609  0.55476534  0.13888295     0.11900
H1132       H  0.91370588  0.52328159  0.23572377     0.11900
C1133       C  0.64189462  0.80410779  0.16795592    -0.14200
C1134       C  0.62345213  0.78998561  0.14085413     0.07900
C1135       C  0.62685276  0.75517877  0.13390165    -0.14200
C1136       C  0.64819159  0.73474900  0.15372544    -0.14200
C1137       C  0.66607395  0.74857031  0.18148955     0.07900
C1138       C  0.66305496  0.78362599  0.18806542    -0.14200
H1139       H  0.63855999  0.83058157  0.17465089     0.11900
H1140       H  0.61176760  0.74351323  0.11395699     0.11900
H1141       H  0.65019775  0.70799734  0.14768138     0.11900
H1142       H  0.67692656  0.79523342  0.20889121     0.11900
C1143       C  0.49386857  0.76453296  0.13121240    -0.14200
C1144       C  0.50218691  0.79777422  0.14085533     0.07900
C1145       C  0.48638378  0.81211689  0.16951108    -0.14200
C1146       C  0.46278303  0.79325852  0.18841912    -0.14200
C1147       C  0.45495151  0.75955347  0.17918883     0.07900
C1148       C  0.47040589  0.74568464  0.15000031    -0.14200
H1149       H  0.50681689  0.75257332  0.10995464     0.11900
H1150       H  0.49351632  0.83723601  0.17817896     0.11900
H1151       H  0.45094355  0.80495761  0.21043828     0.11900
H1152       H  0.46467559  0.72006141  0.14182527     0.11900
C1153       C  0.88040279  0.81257634  0.43984323    -0.14200
C1154       C  0.91609562  0.81256771  0.44202736     0.07900
C1155       C  0.93498304  0.79383806  0.41823366    -0.14200
C1156       C  0.91825298  0.77405429  0.39366438    -0.14200
C1157       C  0.88238454  0.77298455  0.39234131     0.07900
C1158       C  0.86372187  0.79332700  0.41504833    -0.14200
H1159       H  0.86534719  0.82641085  0.45839538     0.11900
H1160       H  0.96248350  0.79283726  0.41998237     0.11900
H1161       H  0.93339119  0.75933109  0.37591030     0.11900
H1162       H  0.83616617  0.79360596  0.41430712     0.11900
C1163       C  0.88333775  0.80488220  0.56823677    -0.14200
C1164       C  0.91875630  0.80356080  0.56366165     0.07900
C1165       C  0.93800966  0.78061022  0.58290801    -0.14200
C1166       C  0.92183170  0.75857818  0.60572903    -0.14200
C1167       C  0.88620461  0.75945655  0.60984360     0.07900
C1168       C  0.86725770  0.78336422  0.59134505    -0.14200
H1169       H  0.86795510  0.82189829  0.55299049     0.11900
H1170       H  0.96522474  0.77851733  0.57898994     0.11900
H1171       H  0.93718603  0.74084528  0.62012774     0.11900
H1172       H  0.83988534  0.78501100  0.59423678     0.11900
C1173       C  0.87507643  0.09738129  0.59853549    -0.14200
C1174       C  0.88410009  0.13130066  0.60540294     0.07900
C1175       C  0.91539663  0.14338732  0.59296919    -0.14200
C1176       C  0.93633175  0.12260755  0.57294035    -0.14200
C1177       C  0.92679422  0.08914534  0.56534195     0.07900
C1178       C  0.89616074  0.07658864  0.57858173    -0.14200
H1179       H  0.85148018  0.08699931  0.60820712     0.11900
H1180       H  0.92346858  0.16913770  0.59819398     0.11900
H1181       H  0.95917699  0.13323802  0.56181130     0.11900
H1182       H  0.88760701  0.05133262  0.57183490     0.11900
C1183       C  0.91163378  0.06556513  0.42035272    -0.14200
C1184       C  0.93012890  0.08524852  0.44363474     0.07900
C1185       C  0.92991793  0.12070439  0.44046115    -0.14200
C1186       C  0.91097650  0.13642800  0.41495886    -0.14200
C1187       C  0.89129198  0.11704459  0.39231108     0.07900
C1188       C  0.89222905  0.08136699  0.39490656    -0.14200
H1189       H  0.91080783  0.03822751  0.42292529     0.11900
H1190       H  0.94359876  0.13635552  0.45859600     0.11900
H1191       H  0.91130572  0.16385045  0.41337510     0.11900
H1192       H  0.87787999  0.06568385  0.37736309     0.11900
C1193       C  0.23113168  0.80897136  0.57567945    -0.14200
C1194       C  0.20248988  0.79304222  0.56169811     0.07900
C1195       C  0.19646323  0.75873199  0.56896161    -0.14200
C1196       C  0.21880358  0.74056112  0.58988225    -0.14200
C1197       C  0.24819528  0.75614957  0.60306875     0.07900
C1198       C  0.25383778  0.79069424  0.59610189    -0.14200
H1199       H  0.23691256  0.83504933  0.56927261     0.11900
H1200       H  0.17513506  0.74568661  0.55735234     0.11900
H1201       H  0.21345424  0.71414203  0.59514466     0.11900
H1202       H  0.27588777  0.80361820  0.60637624     0.11900
C1203       C  0.22477662  0.81517031  0.42689973    -0.14200
C1204       C  0.19590977  0.79934795  0.44042866     0.07900
C1205       C  0.18707215  0.76673775  0.42923491    -0.14200
C1206       C  0.20724641  0.74981724  0.40527652    -0.14200
C1207       C  0.23708284  0.76497704  0.39272294     0.07900
C1208       C  0.24523333  0.79814558  0.40324267    -0.14200
H1209       H  0.23264313  0.83983655  0.43623658     0.11900
H1210       H  0.16551170  0.75371671  0.44035479     0.11900
H1211       H  0.19997477  0.72452092  0.39729942     0.11900
H1212       H  0.26770110  0.81077849  0.39358826     0.11900
loop_ 
_geom_bond_atom_site_label_1 
_geom_bond_atom_site_label_2 
_geom_bond_distance 
_geom_bond_site_symmetry_2 
_ccdc_geom_bond_type 
C1            N2   1.363       .  A
C1            N6   1.347       .  A
C1         C1194   1.466       .  S
N2            C3   1.368       .  A
C3            N4   1.366       .  A
C3          C549   1.491       .  S
N4            C5   1.360       .  A
C5            N6   1.347       .  A
C5         C1204   1.461       .  S
C7            N8   1.364       .  A
C7           N12   1.345       .  A
C7         C1177   1.469       .  S
N8            C9   1.370       .  A
C9           N10   1.368       .  A
C9          C551   1.494   1_655  S
N10          C11   1.362       .  A
C11          N12   1.347       .  A
C11        C1184   1.469       .  S
C13          N14   1.362       .  A
C13          N18   1.347       .  A
C13        C1164   1.469       .  S
N14          C15   1.368       .  A
C15          N16   1.368       .  A
C15         C552   1.493   1_655  S
N16          C17   1.363       .  A
C17          N18   1.347       .  A
C17        C1154   1.471       .  S
C19          N20   1.363       .  A
C19          N24   1.346       .  A
C19        C1144   1.467       .  S
N20          C21   1.369       .  A
C21          N22   1.371       .  A
C21         C584   1.500       .  S
N22          C23   1.365       .  A
C23          N24   1.346       .  A
C23        C1134   1.470       .  S
C25          N26   1.347       .  A
C25          N30   1.363       .  A
C25        C1114   1.467       .  S
N26          C27   1.347       .  A
C27          N28   1.363       .  A
C27        C1124   1.468       .  S
N28          C29   1.367       .  A
C29          N30   1.368       .  A
C29         C618   1.495   1_655  S
C31          N32   1.363       .  A
C31          N36   1.344       .  A
C31        C1104   1.469       .  S
N32          C33   1.370       .  A
C33          N34   1.369       .  A
C33         C619   1.495       .  S
N34          C35   1.364       .  A
C35          N36   1.346       .  A
C35        C1094   1.473       .  S
C37          N38   1.362       .  A
C37          N42   1.345       .  A
C37        C1084   1.468       .  S
N38          C39   1.368       .  A
C39          N40   1.369       .  A
C39         C586   1.495   1_545  S
N40          C41   1.364       .  A
C41          N42   1.347       .  A
C41        C1074   1.473       .  S
C43          N44   1.347       .  A
C43          N48   1.362       .  A
C43        C1054   1.465       .  S
N44          C45   1.347       .  A
C45          N46   1.365       .  A
C45        C1064   1.473       .  S
N46          C47   1.370       .  A
C47          N48   1.367       .  A
C47         C620   1.497       .  S
C49          N50   1.344       .  A
C49          N54   1.362       .  A
C49        C1034   1.466       .  S
N50          C51   1.345       .  A
C51          N52   1.367       .  A
C51        C1047   1.471       .  S
N52          C53   1.372       .  A
C53          N54   1.368       .  A
C53         C585   1.500       .  S
C55          N56   1.348       .  A
C55          N60   1.364       .  A
C55        C1024   1.473       .  S
N56          C57   1.346       .  A
C57          N58   1.363       .  A
C57        C1014   1.467   1_455  S
N58          C59   1.368       .  A
C59          N60   1.368       .  A
C59         C687   1.495       .  S
O61         Mg63   2.155       .  S
O61         Mg69   2.144       .  S
O61          C96   1.235       .  S
C62          O75   1.231       .  S
C62          O99   1.265       .  A
C62         H101   1.081       .  S
Mg63         O92   2.177       .  S
Mg63        O107   2.286       .  S
Mg63        O103   2.264       .  S
Mg63         O74   2.297       .  S
O64        Mg106   2.178       .  S
O64         Mg89   2.148       .  S
O64          C85   1.236       .  S
O65          C96   1.271       .  A
O65         Mg89   2.315       .  S
C66        C1007   1.485       .  S
C66          O68   1.268       .  A
C66          O80   1.269       .  A
O67          C95   1.272       .  A
O67         Mg69   2.312       .  S
O68        Mg100   2.271       .  S
Mg69         O75   2.163       .  S
Mg69         O83   2.261       .  S
Mg69         O71   2.271       .  S
C70         C964   1.472       .  S
C70         O108   1.269       .  A
C70          O76   1.271       .  A
O71          C78   1.269       .  A
H72          C85   1.081       .  S
C73          O87   1.234       .  S
C73          O88   1.271       .  A
C73          H98   1.081       .  S
O74          C97   1.266       .  A
O75         Mg89   2.167       .  S
O76        Mg106   2.271       .  S
C77        C1027   1.481       .  S
C77          O90   1.272       .  A
C77          O82   1.272       .  A
C78         C984   1.484       .  S
C78         O105   1.267       .  A
Mg79         O86   2.158       .  S
Mg79         O87   2.150       .  S
Mg79         O80   2.270       .  S
Mg79         O81   2.309       .  S
Mg79        O108   2.247       .  S
O81          C85   1.272       .  A
O82         Mg89   2.286       .  S
O83         C102   1.270       .  A
O84         C104   1.272       .  A
O84        Mg100   2.284       .  S
O86        Mg100   2.168       .  S
O86          C97   1.231       .  S
O87        Mg106   2.151       .  S
O88        Mg100   2.315       .  S
Mg89        O105   2.260       .  S
O90        Mg106   2.271       .  S
H91          C96   1.081       .  S
O92        Mg100   2.156       .  S
O92          C95   1.236       .  S
H93          C95   1.081       .  S
H94          C97   1.081       .  S
O99        Mg106   2.296       .  S
C102        C997   1.482       .  S
C102        O107   1.272       .  A
O103        C104   1.271       .  A
C104        C974   1.482       .  S
C109        N110   1.345       .  A
C109        N114   1.365       .  A
C109       C1004   1.467   1_565  S
N110        C111   1.345       .  A
C111        N112   1.362       .  A
C111        C954   1.465       .  S
N112        C113   1.369       .  A
C113        N114   1.370       .  A
C113        C722   1.498       .  S
O115       Mg117   2.156       .  S
O115       Mg123   2.163       .  S
O115        C150   1.236       .  S
C116        O129   1.234       .  S
C116        O153   1.271       .  A
C116        H155   1.081       .  S
Mg117       O146   2.167       .  S
Mg117       O161   2.290       .  S
Mg117       O157   2.256       .  S
Mg117       O128   2.306       .  S
O118       Mg160   2.153       .  S
O118       Mg143   2.160       .  S
O118        C139   1.234       .  S
O119        C150   1.273       .  A
O119       Mg143   2.321       .  S
C120       C1147   1.485       .  S
C120        O122   1.271       .  A
C120        O134   1.271       .  A
O121        C149   1.269       .  A
O121       Mg123   2.300       .  S
O122       Mg154   2.266       .  S
Mg123       O129   2.152       .  S
Mg123       O137   2.247       .  S
Mg123       O125   2.286       .  S
C124        C957   1.483       .  S
C124        O162   1.269       .  A
C124        O130   1.271       .  A
O125        C132   1.270       .  A
H126        C139   1.081       .  S
C127        O141   1.234       .  S
C127        O142   1.270       .  A
C127        H152   1.081       .  S
O128        C151   1.268       .  A
O129       Mg143   2.136       .  S
O130       Mg160   2.291       .  S
C131       C1207   1.479       .  S
C131        O144   1.268       .  A
C131        O136   1.270       .  A
C132        C944   1.482       .  S
C132        O159   1.268       .  A
Mg133       O140   2.157       .  S
Mg133       O141   2.149       .  S
Mg133       O134   2.289       .  S
Mg133       O135   2.315       .  S
Mg133       O162   2.258       .  S
O135        C139   1.271       .  A
O136       Mg143   2.286       .  S
O137        C156   1.269       .  A
O138        C158   1.273       .  A
O138       Mg154   2.294       .  S
O140       Mg154   2.152       .  S
O140        C151   1.232       .  S
O141       Mg160   2.157       .  S
O142       Mg154   2.309       .  S
Mg143       O159   2.268       .  S
O144       Mg160   2.252       .  S
H145        C150   1.081       .  S
O146       Mg154   2.163       .  S
O146        C149   1.234       .  S
H147        C149   1.081       .  S
H148        C151   1.081       .  S
O153       Mg160   2.315       .  S
C156        C924   1.477       .  S
C156        O161   1.272       .  A
O157        C158   1.270       .  A
C158        C934   1.483       .  S
O163       Mg165   2.164       .  S
O163       Mg171   2.160       .  S
O163        C198   1.237       .  S
C164        O177   1.234       .  S
C164        O201   1.271       .  A
C164        H203   1.081       .  S
Mg165       O194   2.165       .  S
Mg165       O209   2.305       .  S
Mg165       O205   2.277       .  S
Mg165       O176   2.318       .  S
O166       Mg208   2.168       .  S
O166       Mg191   2.168       .  S
O166        C187   1.232       .  S
O167        C198   1.274       .  A
O167       Mg191   2.322       .  S
C168       C1017   1.484       .  S
C168        O170   1.269       .  A
C168        O182   1.271       .  A
O169        C197   1.269       .  A
O169       Mg171   2.308       .  S
O170       Mg202   2.265       .  S
Mg171       O177   2.157       .  S
Mg171       O185   2.260       .  S
Mg171       O173   2.294       .  S
C172       C1187   1.482       .  S
C172        O210   1.270       .  A
C172        O178   1.273       .  A
O173        C180   1.272       .  A
H174        C187   1.081       .  S
C175        O189   1.236       .  S
C175        O190   1.272       .  A
C175        H200   1.081       .  S
O176        C199   1.271       .  A
O177       Mg191   2.134       .  S
O178       Mg208   2.300       .  S
C179        C914   1.484       .  S
C179        O192   1.269       .  A
C179        O184   1.270       .  A
C180        C897   1.485       .  S
C180        O207   1.270       .  A
Mg181       O188   2.147       .  S
Mg181       O189   2.167       .  S
Mg181       O182   2.288       .  S
Mg181       O183   2.301       .  S
Mg181       O210   2.247       .  S
O183        C187   1.267       .  A
O184       Mg191   2.280       .  S
O185        C204   1.271       .  A
O186        C206   1.267       .  A
O186       Mg202   2.266       .  S
O188       Mg202   2.137       .  S
O188        C199   1.234       .  S
O189       Mg208   2.155       .  S
O190       Mg202   2.315       .  S
Mg191       O207   2.277       .  S
O192       Mg208   2.263       .  S
H193        C198   1.081       .  S
O194       Mg202   2.173       .  S
O194        C197   1.233       .  S
H195        C197   1.081       .  S
H196        C199   1.081       .  S
O201       Mg208   2.315       .  S
C204        C904   1.487       .  S
C204        O209   1.273       .  A
O205        C206   1.268       .  A
C206       C1117   1.483       .  S
C211        N212   1.346       .  A
C211        N216   1.363       .  A
C211        C917   1.465   1_565  S
N212        C213   1.346       .  A
C213        N214   1.363       .  A
C213        C884   1.467       .  S
N214        C215   1.369       .  A
C215        N216   1.368       .  A
C215        C719   1.496       .  S
O217       Mg219   2.161       .  S
O217       Mg225   2.175       .  S
O217        C252   1.237       .  S
C218        O231   1.234       .  S
C218        O255   1.271       .  A
C218        H257   1.081       .  S
Mg219       O248   2.161       .  S
Mg219       O263   2.296       .  S
Mg219       O259   2.275       .  S
Mg219       O230   2.316       .  S
O220       Mg262   2.157       .  S
O220       Mg245   2.166       .  S
O220        C241   1.232       .  S
O221        C252   1.272       .  A
O221       Mg245   2.310       .  S
C222        C887   1.485       .  S
C222        O224   1.270       .  A
C222        O236   1.272       .  A
O223        C251   1.266       .  A
O223       Mg225   2.301       .  S
O224       Mg256   2.262       .  S
Mg225       O231   2.150       .  S
Mg225       O239   2.262       .  S
Mg225       O227   2.285       .  S
C226       C1157   1.483       .  S
C226        O264   1.271       .  A
C226        O232   1.274       .  A
O227        C234   1.272       .  A
H228        C241   1.081       .  S
C229        O243   1.235       .  S
C229        O244   1.272       .  A
C229        H254   1.081       .  S
O230        C253   1.271       .  A
O231       Mg245   2.146       .  S
O232       Mg262   2.298       .  S
C233        C874   1.482       .  S
C233        O246   1.270       .  A
C233        O238   1.267       .  A
C234       C1127   1.479       .  S
C234        O261   1.269       .  A
Mg235       O242   2.161       .  S
Mg235       O243   2.169       .  S
Mg235       O236   2.292       .  S
Mg235       O237   2.302       .  S
Mg235       O264   2.262       .  S
O237        C241   1.267       .  A
O238       Mg245   2.274       .  S
O239        C258   1.271       .  A
O240        C260   1.270       .  A
O240       Mg256   2.281       .  S
O242       Mg256   2.147       .  S
O242        C253   1.235       .  S
O243       Mg262   2.159       .  S
O244       Mg256   2.313       .  S
Mg245       O261   2.256       .  S
O246       Mg262   2.282       .  S
H247        C252   1.081       .  S
O248       Mg256   2.166       .  S
O248        C251   1.231       .  S
H249        C251   1.081       .  S
H250        C253   1.081       .  S
O255       Mg262   2.316       .  S
C258        C864   1.484       .  S
C258        O263   1.274       .  A
O259        C260   1.270       .  A
C260       C1137   1.486       .  S
C265        N266   1.363       .  A
C265        N270   1.346       .  A
C265        C947   1.467       .  S
N266        C267   1.369       .  A
C267        N268   1.367       .  A
C267        C686   1.493       .  S
N268        C269   1.362       .  A
C269        N270   1.345       .  A
C269        C877   1.465       .  S
C271        N272   1.347       .  A
C271        N276   1.362       .  A
C271        C854   1.463       .  S
N272        C273   1.346   1_556  A
C273        N274   1.362       .  A
C273        C994   1.463       .  S
N274        C275   1.367   1_554  A
C275        N276   1.367       .  A
C275        C653   1.492       .  S
O277       Mg279   2.152       .  S
O277       Mg285   2.156       .  S
O277        C312   1.237       .  S
C278        O291   1.234       .  S
C278        O315   1.271       .  A
C278        H317   1.081       .  S
Mg279       O308   2.162       .  S
Mg279       O323   2.294       .  S
Mg279       O319   2.276       .  S
Mg279       O290   2.319       .  S
O280       Mg322   2.167       .  S
O280       Mg305   2.166       .  S
O280        C301   1.233       .  S
O281        C312   1.274       .  A
O281       Mg305   2.320       .  S
C282        C847   1.485       .  S
C282        O284   1.269       .  A
C282        O296   1.269       .  A
O283        C311   1.269       .  A
O283       Mg285   2.307       .  S
O284       Mg316   2.284       .  S
Mg285       O291   2.145       .  S
Mg285       O299   2.252       .  S
Mg285       O287   2.283       .  S
C286       C1087   1.485       .  S
C286        O324   1.269       .  A
C286        O292   1.274       .  A
O287        C294   1.270       .  A
H288        C301   1.081       .  S
C289        O303   1.237       .  S
C289        O304   1.275       .  A
C289        H314   1.081       .  S
O290        C313   1.271       .  A
O291       Mg305   2.132       .  S
O292       Mg322   2.304       .  S
C293        C857   1.481       .  S
C293        O306   1.269       .  A
C293        O298   1.267       .  A
C294       C1057   1.482       .  S
C294        O321   1.268       .  A
Mg295       O302   2.152       .  S
Mg295       O303   2.158       .  S
Mg295       O296   2.285       .  S
Mg295       O297   2.303       .  S
Mg295       O324   2.250       .  S
O297        C301   1.268       .  A
O298       Mg305   2.265       .  S
O299        C318   1.270       .  A
O300        C320   1.268       .  A
O300       Mg316   2.276       .  S
O302       Mg316   2.127       .  S
O302        C313   1.234       .  S
O303       Mg322   2.156       .  S
O304       Mg316   2.325       .  S
Mg305       O321   2.267       .  S
O306       Mg322   2.271       .  S
H307        C312   1.081       .  S
O308       Mg316   2.174       .  S
O308        C311   1.234       .  S
H309        C311   1.081       .  S
H310        C313   1.081       .  S
O315       Mg322   2.316       .  S
C318        C834   1.479       .  S
C318        O323   1.273       .  A
O319        C320   1.268       .  A
C320        C827   1.479       .  S
C325        N326   1.347       .  A
C325        N330   1.364       .  A
C325        C844   1.473   1_565  S
N326        C327   1.347       .  A
C327        N328   1.363       .  A
C327        C814   1.472       .  S
N328        C329   1.368       .  A
C329        N330   1.369       .  A
C329        C721   1.495       .  S
O331       Mg333   2.157       .  S
O331       Mg339   2.173       .  S
O331        C366   1.235       .  S
C332        O345   1.235       .  S
C332        O369   1.271       .  A
C332        H371   1.081       .  S
Mg333       O362   2.155       .  S
Mg333       O377   2.296       .  S
Mg333       O373   2.279       .  S
Mg333       O344   2.316       .  S
O334       Mg376   2.162       .  S
O334       Mg359   2.167       .  S
O334        C355   1.232       .  S
O335        C366   1.270       .  A
O335       Mg359   2.306       .  S
C336        C804   1.480       .  S
C336        O338   1.268       .  A
C336        O350   1.272       .  A
O337        C365   1.267       .  A
O337       Mg339   2.299       .  S
O338       Mg370   2.248       .  S
Mg339       O345   2.163       .  S
Mg339       O353   2.274       .  S
Mg339       O341   2.292       .  S
C340       C1067   1.485       .  S
C340        O378   1.271       .  A
C340        O346   1.274       .  A
O341        C348   1.273       .  A
H342        C355   1.081       .  S
C343        O357   1.236       .  S
C343        O358   1.272       .  A
C343        H368   1.081       .  S
O344        C367   1.272       .  A
O345       Mg359   2.153       .  S
O346       Mg376   2.299       .  S
C347        C794   1.483       .  S
C347        O360   1.269       .  A
C347        O352   1.271       .  A
C348       C1037   1.481       .  S
C348        O375   1.270       .  A
Mg349       O356   2.153       .  S
Mg349       O357   2.173       .  S
Mg349       O350   2.288       .  S
Mg349       O351   2.302       .  S
Mg349       O378   2.268       .  S
O351        C355   1.267       .  A
O352       Mg359   2.284       .  S
O353        C372   1.273       .  A
O354        C374   1.268       .  A
O354       Mg370   2.276       .  S
O356       Mg370   2.142       .  S
O356        C367   1.235       .  S
O357       Mg376   2.152       .  S
O358       Mg370   2.310       .  S
Mg359       O375   2.256       .  S
O360       Mg376   2.263       .  S
H361        C366   1.081       .  S
O362       Mg370   2.164       .  S
O362        C365   1.232       .  S
H363        C365   1.081       .  S
H364        C367   1.081       .  S
O369       Mg376   2.315       .  S
C372        C817   1.484       .  S
C372        O377   1.274       .  A
O373        C374   1.270       .  A
C374       C1197   1.483       .  S
C379        N380   1.360       .  A
C379        N384   1.344       .  A
C379        C807   1.461       .  S
N380        C381   1.366       .  A
C381        N382   1.369       .  A
C381        C685   1.493       .  S
N382        C383   1.364       .  A
C383        N384   1.346       .  A
C383        C784   1.467   1_455  S
C385        N386   1.346       .  A
C385        N390   1.363       .  A
C385        C837   1.471       .  S
N386        C387   1.345       .  A
C387        N388   1.361       .  A
C387        C774   1.465   1_455  S
N388        C389   1.367       .  A
C389        N390   1.368       .  A
C389        C688   1.490       .  S
O391       Mg393   2.156       .  S
O391       Mg399   2.152       .  S
O391        C426   1.232       .  S
C392        O405   1.235       .  S
C392        O429   1.272       .  A
C392        H431   1.081       .  S
Mg393       O422   2.156       .  S
Mg393       O437   2.282       .  S
Mg393       O433   2.261       .  S
Mg393       O404   2.306       .  S
O394       Mg436   2.150       .  S
O394       Mg419   2.157       .  S
O394        C415   1.234       .  S
O395        C426   1.268       .  A
O395       Mg419   2.304       .  S
C396       C1077   1.479       .  S
C396        O398   1.270       .  A
C396        O410   1.271       .  A
O397        C425   1.271       .  A
O397       Mg399   2.312       .  S
O398       Mg430   2.257       .  S
Mg399       O405   2.174       .  S
Mg399       O413   2.276       .  S
Mg399       O401   2.284       .  S
C400        C757   1.483       .  S
C400        O438   1.268       .  A
C400        O406   1.270       .  A
O401        C408   1.271       .  A
H402        C415   1.081       .  S
C403        O417   1.233       .  S
C403        O418   1.269       .  A
C403        H428   1.081       .  S
O404        C427   1.270       .  A
O405       Mg419   2.169       .  S
O406       Mg436   2.283       .  S
C407       C1107   1.485       .  S
C407        O420   1.270       .  A
C407        O412   1.273       .  A
C408        C777   1.481       .  S
C408        O435   1.270       .  A
Mg409       O416   2.160       .  S
Mg409       O417   2.161       .  S
Mg409       O410   2.286       .  S
Mg409       O411   2.314       .  S
Mg409       O438   2.258       .  S
O411        C415   1.271       .  A
O412       Mg419   2.293       .  S
O413        C432   1.270       .  A
O414        C434   1.272       .  A
O414       Mg430   2.283       .  S
O416       Mg430   2.166       .  S
O416        C427   1.235       .  S
O417       Mg436   2.166       .  S
O418       Mg430   2.308       .  S
Mg419       O435   2.256       .  S
O420       Mg436   2.265       .  S
H421        C426   1.081       .  S
O422       Mg430   2.148       .  S
O422        C425   1.234       .  S
H423        C425   1.081       .  S
H424        C427   1.081       .  S
O429       Mg436   2.317       .  S
C432       C1174   1.488       .  S
C432        O437   1.270       .  A
O433        C434   1.270       .  A
C434        C764   1.478       .  S
C439        N440   1.363       .  A
C439        N444   1.346       .  A
C439        C767   1.470       .  S
N440        C441   1.368       .  A
C441        N442   1.370       .  A
C441        C720   1.496       .  S
N442        C443   1.365       .  A
C443        N444   1.348       .  A
C443        C744   1.474       .  S
O445       Mg447   2.163       .  S
O445       Mg453   2.168       .  S
O445        C480   1.232       .  S
C446        O459   1.237       .  S
C446        O483   1.273       .  A
C446        H485   1.081       .  S
Mg447       O476   2.128       .  S
Mg447       O491   2.268       .  S
Mg447       O487   2.266       .  S
Mg447       O458   2.323       .  S
O448       Mg490   2.134       .  S
O448       Mg473   2.152       .  S
O448        C469   1.234       .  S
O449        C480   1.267       .  A
O449       Mg473   2.300       .  S
C450        C747   1.485       .  S
C450        O452   1.270       .  A
C450        O464   1.274       .  A
O451        C479   1.271       .  A
O451       Mg453   2.317       .  S
O452       Mg484   2.249       .  S
Mg453       O459   2.159       .  S
Mg453       O467   2.273       .  S
Mg453       O455   2.293       .  S
C454       C1044   1.485       .  S
C454        O492   1.269       .  A
C454        O460   1.268       .  A
O455        C462   1.272       .  A
H456        C469   1.081       .  S
C457        O471   1.232       .  S
C457        O472   1.268       .  A
C457        H482   1.081       .  S
O458        C481   1.275       .  A
O459       Mg473   2.168       .  S
O460       Mg490   2.269       .  S
C461        C734   1.477       .  S
C461        O474   1.269       .  A
C461        O466   1.272       .  A
C462       C1097   1.480       .  S
C462        O489   1.270       .  A
Mg463       O470   2.160       .  S
Mg463       O471   2.171       .  S
Mg463       O464   2.309       .  S
Mg463       O465   2.319       .  S
Mg463       O492   2.277       .  S
O465        C469   1.271       .  A
O466       Mg473   2.292       .  S
O467        C486   1.268       .  A
O468        C488   1.270       .  A
O468       Mg484   2.288       .  S
O470       Mg484   2.165       .  S
O470        C481   1.238       .  S
O471       Mg490   2.169       .  S
O472       Mg484   2.302       .  S
Mg473       O489   2.250       .  S
O474       Mg490   2.263       .  S
H475        C480   1.081       .  S
O476       Mg484   2.149       .  S
O476        C479   1.234       .  S
H477        C479   1.081       .  S
H478        C481   1.081       .  S
O483       Mg490   2.318       .  S
C486        C787   1.481       .  S
C486        O491   1.268       .  A
O487        C488   1.268       .  A
C488       C1167   1.481       .  S
C493        N494   1.346       .  A
C493        N498   1.363       .  A
C493        C797   1.468       .  S
N494        C495   1.346   1_556  A
C495        N496   1.361       .  A
C495        C937   1.463       .  S
N496        C497   1.367   1_554  A
C497        N498   1.369       .  A
C497        C654   1.492       .  S
C499        N500   1.363       .  A
C499        N504   1.346       .  A
C499        C754   1.465       .  S
N500        C501   1.369       .  A
C501        N502   1.369   1_556  A
C501        C652   1.495       .  S
N502        C503   1.363       .  A
C503        N504   1.346   1_554  A
C503        C907   1.469       .  S
C505        N506   1.362       .  A
C505        N510   1.348       .  A
C505        C737   1.470       .  S
N506        C507   1.367       .  A
C507        N508   1.368   1_556  A
C507        C651   1.493       .  S
N508        C509   1.363       .  A
C509        N510   1.347   1_554  A
C509        C867   1.470       .  S
C511        N512   1.348       .  A
C511        N516   1.363       .  A
C511        C977   1.471       .  S
N512        C513   1.347       .  A
C513        N514   1.364       .  A
C513        C894   1.472       .  S
N514        C515   1.369       .  A
C515        N516   1.368       .  A
C515        C583   1.496   1_545  S
C517        N518   1.363       .  A
C517        N522   1.346       .  A
C517        C987   1.465       .  S
N518        C519   1.369       .  A
C519        N520   1.367       .  A
C519        C617   1.494       .  S
N520        C521   1.362       .  A
C521        N522   1.346       .  A
C521        C927   1.469       .  S
C523        N524   1.346       .  A
C523        N528   1.364       .  A
C523        C824   1.468       .  S
N524        C525   1.345       .  A
C525        N526   1.360       .  A
C525        C967   1.461       .  S
N526        C527   1.366       .  A
C527        N528   1.369       .  A
C527        C550   1.493       .  S
N529        C534   1.358       .  A
N529        C533   1.358       .  A
N529        H561   1.032       .  S
N530        C537   1.355       .  A
N530        C538   1.355       .  A
N531        C536   1.358   1_455  A
N531        C535   1.358   1_455  A
N531        H562   1.033       .  S
N532        C539   1.356   1_565  A
N532        C540   1.356   1_565  A
C533        C541   1.387       .  A
C533        C549   1.425       .  A
C534        C550   1.428   1_565  A
C534        C542   1.389       .  A
C535        C543   1.388       .  A
C535        C552   1.426   1_655  A
C536        C551   1.425   1_665  A
C536        C544   1.387       .  A
C537        C549   1.422       .  A
C537        C545   1.388       .  A
C538        C552   1.421       .  A
C538        C546   1.386       .  A
C539        C547   1.387       .  A
C539        C550   1.423       .  A
C540        C548   1.387       .  A
C540        C551   1.424       .  A
C541        H553   1.082       .  S
C541        C542   1.378       .  A
C542        H554   1.082       .  S
C543        H555   1.082       .  S
C543        C544   1.377       .  A
C544        H556   1.082       .  S
C545        H557   1.082       .  S
C545        C546   1.374       .  A
C546        H558   1.082       .  S
C547        H559   1.082       .  S
C547        C548   1.376       .  A
C548        H560   1.082       .  S
N563        C568   1.358       .  A
N563        C567   1.358       .  A
N563        H595   1.034       .  S
N564        C571   1.357   1_566  A
N564        C572   1.357   1_565  A
N565        C570   1.359       .  A
N565        C569   1.358       .  A
N565        H596   1.034       .  S
N566        C573   1.358   1_556  A
N566        C574   1.358       .  A
C567        C575   1.387       .  A
C567        C583   1.425       .  A
C568        C584   1.427       .  A
C568        C576   1.388       .  A
C569        C577   1.388       .  A
C569        C586   1.427       .  A
C570        C585   1.426       .  A
C570        C578   1.387       .  A
C571        C583   1.424   1_545  A
C571        C579   1.387       .  A
C572        C586   1.423   1_545  A
C572        C580   1.386       .  A
C573        C581   1.387       .  A
C573        C584   1.427       .  A
C574        C582   1.386       .  A
C574        C585   1.426       .  A
C575        H587   1.082       .  S
C575        C576   1.380       .  A
C576        H588   1.082       .  S
C577        H589   1.082       .  S
C577        C578   1.379       .  A
C578        H590   1.082       .  S
C579        H591   1.082       .  S
C579        C580   1.376   1_554  A
C580        H592   1.082       .  S
C581        H593   1.082       .  S
C581        C582   1.376   1_554  A
C582        H594   1.082       .  S
N597        C602   1.359       .  A
N597        C601   1.358       .  A
N597        H629   1.032       .  S
N598        C605   1.356       .  A
N598        C606   1.357   1_554  A
N599        C604   1.359       .  A
N599        C603   1.358       .  A
N599        H630   1.029       .  S
N600        C607   1.356   1_455  A
N600        C608   1.355   1_454  A
C601        C609   1.389       .  A
C601        C617   1.427       .  A
C602        C618   1.427       .  A
C602        C610   1.388       .  A
C603        C611   1.389       .  A
C603        C620   1.431       .  A
C604        C619   1.428   1_455  A
C604        C612   1.387       .  A
C605        C617   1.425       .  A
C605        C613   1.386       .  A
C606        C620   1.428       .  A
C606        C614   1.388       .  A
C607        C615   1.386       .  A
C607        C618   1.423   1_655  A
C608        C616   1.388       .  A
C608        C619   1.426       .  A
C609        H621   1.082       .  S
C609        C610   1.376       .  A
C610        H622   1.082       .  S
C611        H623   1.082       .  S
C611        C612   1.379       .  A
C612        H624   1.082       .  S
C613        H625   1.082       .  S
C613        C614   1.378   1_554  A
C614        H626   1.082       .  S
C615        H627   1.082       .  S
C615        C616   1.375   1_554  A
C616        H628   1.082       .  S
N631        C636   1.358       .  A
N631        C635   1.357   1_556  A
N631        H663   1.033       .  S
N632        C639   1.356       .  A
N632        C640   1.356       .  A
N633        C638   1.357   1_556  A
N633        C637   1.357   1_556  A
N633        H664   1.033       .  S
N634        C641   1.356       .  A
N634        C642   1.356       .  A
C635        C643   1.388       .  A
C635        C651   1.426   1_554  A
C636        C652   1.424       .  A
C636        C644   1.386   1_556  A
C637        C645   1.388       .  A
C637        C654   1.426   1_554  A
C638        C653   1.425   1_554  A
C638        C646   1.388       .  A
C639        C651   1.422       .  A
C639        C647   1.386       .  A
C640        C654   1.422       .  A
C640        C648   1.387       .  A
C641        C649   1.387       .  A
C641        C652   1.423       .  A
C642        C650   1.387       .  A
C642        C653   1.423       .  A
C643        H655   1.082       .  S
C643        C644   1.377       .  A
C644        H656   1.082       .  S
C645        H657   1.082       .  S
C645        C646   1.378       .  A
C646        H658   1.082       .  S
C647        H659   1.082       .  S
C647        C648   1.377       .  A
C648        H660   1.082       .  S
C649        H661   1.082       .  S
C649        C650   1.375       .  A
C650        H662   1.082       .  S
N665        C670   1.357       .  A
N665        C669   1.357       .  A
N665        H697   1.033       .  S
N666        C673   1.356       .  A
N666        C674   1.355       .  A
N667        C672   1.357       .  A
N667        C671   1.357       .  A
N667        H698   1.034       .  S
N668        C675   1.356       .  A
N668        C676   1.357       .  A
C669        C677   1.388       .  A
C669        C685   1.426       .  A
C670        C686   1.425       .  A
C670        C678   1.388       .  A
C671        C679   1.387       .  A
C671        C688   1.424       .  A
C672        C687   1.427       .  A
C672        C680   1.389       .  A
C673        C685   1.422       .  A
C673        C681   1.386       .  A
C674        C688   1.424       .  A
C674        C682   1.388       .  A
C675        C683   1.387       .  A
C675        C686   1.425       .  A
C676        C684   1.386       .  A
C676        C687   1.424       .  A
C677        H689   1.082       .  S
C677        C678   1.378       .  A
C678        H690   1.082       .  S
C679        H691   1.082       .  S
C679        C680   1.379       .  A
C680        H692   1.082       .  S
C681        H693   1.082       .  S
C681        C682   1.375       .  A
C682        H694   1.082       .  S
C683        H695   1.082       .  S
C683        C684   1.376       .  A
C684        H696   1.082       .  S
N699        C704   1.358       .  A
N699        C703   1.358       .  A
N699        H731   1.035       .  S
N700        C707   1.356       .  A
N700        C708   1.357       .  A
N701        C706   1.358       .  A
N701        C705   1.359       .  A
N701        H732   1.035       .  S
N702        C709   1.357       .  A
N702        C710   1.356       .  A
C703        C711   1.387       .  A
C703        C719   1.424       .  A
C704        C720   1.425       .  A
C704        C712   1.388       .  A
C705        C713   1.388       .  A
C705        C722   1.426       .  A
C706        C721   1.424       .  A
C706        C714   1.387       .  A
C707        C719   1.423       .  A
C707        C715   1.387       .  A
C708        C722   1.423       .  A
C708        C716   1.386       .  A
C709        C717   1.386       .  A
C709        C720   1.422       .  A
C710        C718   1.388       .  A
C710        C721   1.424       .  A
C711        H723   1.082       .  S
C711        C712   1.378       .  A
C712        H724   1.082       .  S
C713        H725   1.082       .  S
C713        C714   1.379       .  A
C714        H726   1.082       .  S
C715        H727   1.082       .  S
C715        C716   1.377       .  A
C716        H728   1.082       .  S
C717        H729   1.082       .  S
C717        C718   1.377       .  A
C718        H730   1.082       .  S
C733        H739   1.083       .  S
C733        C734   1.402       .  A
C733        C738   1.395       .  A
C734        C735   1.409       .  A
C735        H740   1.083       .  S
C735        C736   1.402       .  A
C736        H741   1.083       .  S
C736        C737   1.401       .  A
C737        C738   1.405       .  A
C738        H742   1.084       .  S
C743        H749   1.083       .  S
C743        C744   1.402       .  A
C743        C748   1.405       .  A
C744        C745   1.405       .  A
C745        H750   1.084       .  S
C745        C746   1.395       .  A
C746        H751   1.083       .  S
C746        C747   1.404       .  A
C747        C748   1.411       .  A
C748        H752   1.083       .  S
C753        H759   1.083       .  S
C753        C754   1.402       .  A
C753        C758   1.401       .  A
C754        C755   1.402       .  A
C755        H760   1.084       .  S
C755        C756   1.398       .  A
C756        H761   1.083       .  S
C756        C757   1.407       .  A
C757        C758   1.408       .  A
C758        H762   1.083       .  S
C763        H769   1.083       .  S
C763        C764   1.402       .  A
C763        C768   1.398       .  A
C764        C765   1.410       .  A
C765        H770   1.083       .  S
C765        C766   1.399       .  A
C766        H771   1.083       .  S
C766        C767   1.399   1_545  A
C767        C768   1.407   1_565  A
C768        H772   1.084   1_545  S
C773        H779   1.084   1_655  S
C773        C774   1.403       .  A
C773        C778   1.395       .  A
C774        C775   1.400       .  A
C775        H780   1.083       .  S
C775        C776   1.400       .  A
C776        H781   1.083       .  S
C776        C777   1.410       .  A
C777        C778   1.404       .  A
C778        H782   1.083       .  S
C783        H789   1.083       .  S
C783        C784   1.401       .  A
C783        C788   1.401       .  A
C784        C785   1.405       .  A
C785        H790   1.084   1_655  S
C785        C786   1.398       .  A
C786        H791   1.083       .  S
C786        C787   1.404       .  A
C787        C788   1.409       .  A
C788        H792   1.083       .  S
C793        H799   1.083       .  S
C793        C794   1.405       .  A
C793        C798   1.397       .  A
C794        C795   1.410       .  A
C795        H800   1.083       .  S
C795        C796   1.402       .  A
C796        H801   1.083       .  S
C796        C797   1.401       .  A
C797        C798   1.403       .  A
C798        H802   1.084       .  S
C803        H809   1.083       .  S
C803        C804   1.407       .  A
C803        C808   1.397       .  A
C804        C805   1.408       .  A
C805        H810   1.083       .  S
C805        C806   1.398       .  A
C806        H811   1.084       .  S
C806        C807   1.400       .  A
C807        C808   1.401       .  A
C808        H812   1.084       .  S
C813        H819   1.083       .  S
C813        C814   1.400       .  A
C813        C818   1.403       .  A
C814        C815   1.406       .  A
C815        H820   1.084       .  S
C815        C816   1.397       .  A
C816        H821   1.083       .  S
C816        C817   1.403       .  A
C817        C818   1.411       .  A
C818        H822   1.083       .  S
C823        H829   1.083       .  S
C823        C824   1.402       .  A
C823        C828   1.403       .  A
C824        C825   1.404       .  A
C825        H830   1.084       .  S
C825        C826   1.395       .  A
C826        H831   1.083       .  S
C826        C827   1.403       .  A
C827        C828   1.409       .  A
C828        H832   1.083       .  S
C833        H839   1.083       .  S
C833        C834   1.402       .  A
C833        C838   1.395       .  A
C834        C835   1.410       .  A
C835        H840   1.083       .  S
C835        C836   1.401       .  A
C836        H841   1.083       .  S
C836        C837   1.400       .  A
C837        C838   1.407       .  A
C838        H842   1.084       .  S
C843        H849   1.083       .  S
C843        C844   1.402       .  A
C843        C848   1.405       .  A
C844        C845   1.404       .  A
C845        H850   1.084   1_545  S
C845        C846   1.396       .  A
C846        H851   1.083       .  S
C846        C847   1.404       .  A
C847        C848   1.410       .  A
C848        H852   1.083       .  S
C853        H859   1.083       .  S
C853        C854   1.401       .  A
C853        C858   1.398       .  A
C854        C855   1.402       .  A
C855        H860   1.084       .  S
C855        C856   1.398       .  A
C856        H861   1.083       .  S
C856        C857   1.406       .  A
C857        C858   1.408       .  A
C858        H862   1.083       .  S
C863        H869   1.083       .  S
C863        C864   1.410       .  A
C863        C868   1.400       .  A
C864        C865   1.405       .  A
C865        H870   1.083       .  S
C865        C866   1.398       .  A
C866        H871   1.084       .  S
C866        C867   1.405       .  A
C867        C868   1.400       .  A
C868        H872   1.083       .  S
C873        H879   1.083       .  S
C873        C874   1.407       .  A
C873        C878   1.399       .  A
C874        C875   1.407       .  A
C875        H880   1.083       .  S
C875        C876   1.400       .  A
C876        H881   1.083       .  S
C876        C877   1.401   1_655  A
C877        C878   1.403   1_455  A
C878        H882   1.084   1_655  S
C883        H889   1.083       .  S
C883        C884   1.401       .  A
C883        C888   1.400       .  A
C884        C885   1.403       .  A
C885        H890   1.083       .  S
C885        C886   1.399       .  A
C886        H891   1.083       .  S
C886        C887   1.407       .  A
C887        C888   1.409       .  A
C888        H892   1.083       .  S
C893        H899   1.083       .  S
C893        C894   1.402       .  A
C893        C898   1.404       .  A
C894        C895   1.404       .  A
C895        H900   1.084       .  S
C895        C896   1.397       .  A
C896        H901   1.083       .  S
C896        C897   1.405       .  A
C897        C898   1.410       .  A
C898        H902   1.083       .  S
C903        H909   1.083       .  S
C903        C904   1.405       .  A
C903        C908   1.396       .  A
C904        C905   1.411       .  A
C905        H910   1.083       .  S
C905        C906   1.404       .  A
C906        H911   1.083       .  S
C906        C907   1.401       .  A
C907        C908   1.403       .  A
C908        H912   1.084       .  S
C913        H919   1.083       .  S
C913        C914   1.408       .  A
C913        C918   1.399       .  A
C914        C915   1.407       .  A
C915        H920   1.083       .  S
C915        C916   1.400       .  A
C916        H921   1.083       .  S
C916        C917   1.402       .  A
C917        C918   1.402       .  A
C918        H922   1.084   1_545  S
C923        H929   1.083       .  S
C923        C924   1.410       .  A
C923        C928   1.401       .  A
C924        C925   1.402       .  A
C925        H930   1.083       .  S
C925        C926   1.395       .  A
C926        H931   1.084       .  S
C926        C927   1.406       .  A
C927        C928   1.400       .  A
C928        H932   1.083       .  S
C933        H939   1.083       .  S
C933        C934   1.406       .  A
C933        C938   1.396       .  A
C934        C935   1.409       .  A
C935        H940   1.083       .  S
C935        C936   1.401       .  A
C936        H941   1.083       .  S
C936        C937   1.401       .  A
C937        C938   1.401       .  A
C938        H942   1.084       .  S
C943        H949   1.083       .  S
C943        C944   1.404       .  A
C943        C948   1.397       .  A
C944        C945   1.409       .  A
C945        H950   1.083       .  S
C945        C946   1.402       .  A
C946        H951   1.083       .  S
C946        C947   1.402       .  A
C947        C948   1.403       .  A
C948        H952   1.084       .  S
C953        H959   1.083       .  S
C953        C954   1.404       .  A
C953        C958   1.400       .  A
C954        C955   1.400       .  A
C955        H960   1.083       .  S
C955        C956   1.398       .  A
C956        H961   1.083       .  S
C956        C957   1.408       .  A
C957        C958   1.407       .  A
C958        H962   1.083       .  S
C963        H969   1.083       .  S
C963        C964   1.408       .  A
C963        C968   1.397       .  A
C964        C965   1.401       .  A
C965        H970   1.083       .  S
C965        C966   1.395       .  A
C966        H971   1.084       .  S
C966        C967   1.404       .  A
C967        C968   1.399       .  A
C968        H972   1.083       .  S
C973        H979   1.083       .  S
C973        C974   1.411       .  A
C973        C978   1.402       .  A
C974        C975   1.402       .  A
C975        H980   1.083       .  S
C975        C976   1.396       .  A
C976        H981   1.084       .  S
C976        C977   1.405       .  A
C977        C978   1.400       .  A
C978        H982   1.083       .  S
C983        H989   1.083       .  S
C983        C984   1.408       .  A
C983        C988   1.398       .  A
C984        C985   1.407       .  A
C985        H990   1.083       .  S
C985        C986   1.401       .  A
C986        H991   1.083       .  S
C986        C987   1.402       .  A
C987        C988   1.402       .  A
C988        H992   1.084       .  S
C993        H999   1.083       .  S
C993        C994   1.402       .  A
C993        C998   1.399       .  A
C994        C995   1.400       .  A
C995       H1000   1.084       .  S
C995        C996   1.398       .  A
C996       H1001   1.083       .  S
C996        C997   1.408       .  A
C997        C998   1.407       .  A
C998       H1002   1.083       .  S
C1003      H1009   1.084       .  S
C1003      C1004   1.403       .  A
C1003      C1008   1.401       .  A
C1004      C1005   1.403       .  A
C1005      H1010   1.083       .  S
C1005      C1006   1.400       .  A
C1006      H1011   1.083       .  S
C1006      C1007   1.407       .  A
C1007      C1008   1.408       .  A
C1008      H1012   1.083       .  S
C1013      H1019   1.084       .  S
C1013      C1014   1.402       .  A
C1013      C1018   1.397       .  A
C1014      C1015   1.402       .  A
C1015      H1020   1.083       .  S
C1015      C1016   1.402       .  A
C1016      H1021   1.083       .  S
C1016      C1017   1.409       .  A
C1017      C1018   1.406       .  A
C1018      H1022   1.083       .  S
C1023      H1029   1.084       .  S
C1023      C1024   1.407       .  A
C1023      C1028   1.397       .  A
C1024      C1025   1.400       .  A
C1025      H1030   1.083       .  S
C1025      C1026   1.401       .  A
C1026      H1031   1.083       .  S
C1026      C1027   1.411       .  A
C1027      C1028   1.401       .  A
C1028      H1032   1.083       .  S
C1033      H1039   1.083       .  S
C1033      C1034   1.400       .  A
C1033      C1038   1.401       .  A
C1034      C1035   1.404       .  A
C1035      H1040   1.084       .  S
C1035      C1036   1.397       .  A
C1036      H1041   1.083       .  S
C1036      C1037   1.404       .  A
C1037      C1038   1.410       .  A
C1038      H1042   1.083       .  S
C1043      H1049   1.083       .  S
C1043      C1044   1.409       .  A
C1043      C1048   1.402       .  A
C1044      C1045   1.405       .  A
C1045      H1050   1.083       .  S
C1045      C1046   1.401       .  A
C1046      H1051   1.084       .  S
C1046      C1047   1.406       .  A
C1047      C1048   1.402       .  A
C1048      H1052   1.083       .  S
C1053      H1059   1.083       .  S
C1053      C1054   1.402       .  A
C1053      C1058   1.402       .  A
C1054      C1055   1.401       .  A
C1055      H1060   1.084       .  S
C1055      C1056   1.395       .  A
C1056      H1061   1.083       .  S
C1056      C1057   1.406       .  A
C1057      C1058   1.409       .  A
C1058      H1062   1.083       .  S
C1063      H1069   1.083       .  S
C1063      C1064   1.399       .  A
C1063      C1068   1.401       .  A
C1064      C1065   1.407       .  A
C1065      H1070   1.084       .  S
C1065      C1066   1.400       .  A
C1066      H1071   1.083       .  S
C1066      C1067   1.404       .  A
C1067      C1068   1.410       .  A
C1068      H1072   1.083       .  S
C1073      H1079   1.084       .  S
C1073      C1074   1.406       .  A
C1073      C1078   1.395       .  A
C1074      C1075   1.401       .  A
C1075      H1080   1.083       .  S
C1075      C1076   1.403       .  A
C1076      H1081   1.083       .  S
C1076      C1077   1.411       .  A
C1077      C1078   1.401       .  A
C1078      H1082   1.083       .  S
C1083      H1089   1.084       .  S
C1083      C1084   1.403       .  A
C1083      C1088   1.396       .  A
C1084      C1085   1.401       .  A
C1085      H1090   1.083       .  S
C1085      C1086   1.402       .  A
C1086      H1091   1.083       .  S
C1086      C1087   1.410       .  A
C1087      C1088   1.406       .  A
C1088      H1092   1.083       .  S
C1093      H1099   1.083       .  S
C1093      C1094   1.401       .  A
C1093      C1098   1.404       .  A
C1094      C1095   1.406       .  A
C1095      H1100   1.084       .  S
C1095      C1096   1.391       .  A
C1096      H1101   1.083       .  S
C1096      C1097   1.401       .  A
C1097      C1098   1.411       .  A
C1098      H1102   1.083       .  S
C1103      H1109   1.084       .  S
C1103      C1104   1.405       .  A
C1103      C1108   1.399       .  A
C1104      C1105   1.400       .  A
C1105      H1110   1.083       .  S
C1105      C1106   1.401       .  A
C1106      H1111   1.083       .  S
C1106      C1107   1.410       .  A
C1107      C1108   1.405       .  A
C1108      H1112   1.083       .  S
C1113      H1119   1.083       .  S
C1113      C1114   1.401       .  A
C1113      C1118   1.400       .  A
C1114      C1115   1.404       .  A
C1115      H1120   1.084       .  S
C1115      C1116   1.399       .  A
C1116      H1121   1.083       .  S
C1116      C1117   1.406       .  A
C1117      C1118   1.408       .  A
C1118      H1122   1.083       .  S
C1123      H1129   1.084       .  S
C1123      C1124   1.405       .  A
C1123      C1128   1.398       .  A
C1124      C1125   1.400       .  A
C1125      H1130   1.083       .  S
C1125      C1126   1.400       .  A
C1126      H1131   1.083       .  S
C1126      C1127   1.409       .  A
C1127      C1128   1.403       .  A
C1128      H1132   1.083       .  S
C1133      H1139   1.083       .  S
C1133      C1134   1.401       .  A
C1133      C1138   1.403       .  A
C1134      C1135   1.404       .  A
C1135      H1140   1.084       .  S
C1135      C1136   1.399       .  A
C1136      H1141   1.083       .  S
C1136      C1137   1.406       .  A
C1137      C1138   1.410       .  A
C1138      H1142   1.083       .  S
C1143      H1149   1.084       .  S
C1143      C1144   1.402       .  A
C1143      C1148   1.397       .  A
C1144      C1145   1.402       .  A
C1145      H1150   1.083       .  S
C1145      C1146   1.403       .  A
C1146      H1151   1.083       .  S
C1146      C1147   1.411       .  A
C1147      C1148   1.405       .  A
C1148      H1152   1.083       .  S
C1153      H1159   1.084       .  S
C1153      C1154   1.405       .  A
C1153      C1158   1.396       .  A
C1154      C1155   1.401       .  A
C1155      H1160   1.083       .  S
C1155      C1156   1.403       .  A
C1156      H1161   1.083       .  S
C1156      C1157   1.411       .  A
C1157      C1158   1.403       .  A
C1158      H1162   1.083       .  S
C1163      H1169   1.084       .  S
C1163      C1164   1.404       .  A
C1163      C1168   1.395       .  A
C1164      C1165   1.401       .  A
C1165      H1170   1.083       .  S
C1165      C1166   1.402       .  A
C1166      H1171   1.083       .  S
C1166      C1167   1.409       .  A
C1167      C1168   1.404       .  A
C1168      H1172   1.083       .  S
C1173      H1179   1.083       .  S
C1173      C1174   1.409       .  A
C1173      C1178   1.402       .  A
C1174      C1175   1.407       .  A
C1175      H1180   1.083       .  S
C1175      C1176   1.400       .  A
C1176      H1181   1.084       .  S
C1176      C1177   1.403       .  A
C1177      C1178   1.402       .  A
C1178      H1182   1.083       .  S
C1183      H1189   1.083       .  S
C1183      C1184   1.401       .  A
C1183      C1188   1.403       .  A
C1184      C1185   1.404       .  A
C1185      H1190   1.084       .  S
C1185      C1186   1.394       .  A
C1186      H1191   1.083       .  S
C1186      C1187   1.403       .  A
C1187      C1188   1.411       .  A
C1188      H1192   1.083       .  S
C1193      H1199   1.083       .  S
C1193      C1194   1.401       .  A
C1193      C1198   1.400       .  A
C1194      C1195   1.403       .  A
C1195      H1200   1.084       .  S
C1195      C1196   1.400       .  A
C1196      H1201   1.083       .  S
C1196      C1197   1.407       .  A
C1197      C1198   1.408       .  A
C1198      H1202   1.083       .  S
C1203      H1209   1.084       .  S
C1203      C1204   1.400       .  A
C1203      C1208   1.398       .  A
C1204      C1205   1.401       .  A
C1205      H1210   1.083       .  S
C1205      C1206   1.397       .  A
C1206      H1211   1.083       .  S
C1206      C1207   1.406       .  A
C1207      C1208   1.407       .  A
C1208      H1212   1.083       .  S
