geometry optimzed in LAMMPS
_audit_creation_date              2020-12-01 
_audit_creation_method            'lammps2cif' 
_symmetry_space_group_name_H-M    'P1' 
_symmetry_Int_Tables_number       1 
_symmetry_cell_setting            triclinic 
loop_ 
_symmetry_equiv_pos_as_xyz 
  x,y,z 
_cell_length_a                    61.18806184 
_cell_length_b                    61.26441118310602 
_cell_length_c                    61.21481878541133 
_cell_angle_alpha                 90.03701923581502 
_cell_angle_beta                  89.9351053857961 
_cell_angle_gamma                 90.03350204013374 
loop_ 
_atom_site_label 
_atom_site_type_symbol 
_atom_site_fract_x 
_atom_site_fract_y 
_atom_site_fract_z 
_atom_site_charge 
N1          N  0.67297747  0.71973345  0.73575431    -0.26800
N2          N  0.67142100  0.73347464  0.71919805    -0.34700
C3          C  0.65317438  0.74548977  0.72162719     0.01500
C4          C  0.64268140  0.73896628  0.74061210     0.07600
C5          C  0.65574762  0.72259370  0.74912948    -0.05500
H6          H  0.64792622  0.75805373  0.71038846     0.08200
H7          H  0.65277203  0.71320186  0.76379925     0.09400
Cu8        Cu  0.69392671  0.73458481  0.69376638     0.44200
Cu9        Cu  0.69798565  0.69708806  0.73872309     0.42000
Cu10       Cu  0.73711046  0.69344765  0.69423194     0.43900
N11         N  0.71780847  0.73182050  0.66974220    -0.34200
N12         N  0.73358630  0.71705408  0.66993315    -0.28400
C13         C  0.74608946  0.71973550  0.65200749    -0.04500
C14         C  0.73771427  0.73690796  0.63992642     0.07700
C15         C  0.71980521  0.74417026  0.65167316     0.01500
H16         H  0.76007763  0.70974679  0.64791382     0.09100
H17         H  0.70902315  0.75748708  0.64741183     0.08200
N18         N  0.73611352  0.67163936  0.72039122    -0.35600
N19         N  0.72210818  0.67340089  0.73677590    -0.27800
C20         C  0.72511495  0.65668402  0.75067419    -0.03000
C21         C  0.74172434  0.64363657  0.74267278     0.05600
C22         C  0.74833089  0.65360201  0.72342549     0.03700
H23         H  0.71540413  0.65382762  0.76517698     0.08800
H24         H  0.76088339  0.64797761  0.71230593     0.07600
N25         N  0.73477652  0.14830943  0.67224155    -0.26800
N26         N  0.71863746  0.13408152  0.67026756    -0.34700
C27         C  0.72223112  0.12165007  0.65249796     0.01500
C28         C  0.74152914  0.12843275  0.64282887     0.07600
C29         C  0.74902727  0.14534861  0.65578125    -0.05500
H30         H  0.71146582  0.10880456  0.64688509     0.08200
H31         H  0.76376087  0.15483193  0.65341058     0.09400
Cu32       Cu  0.69257354  0.13219558  0.69188457     0.44200
Cu33       Cu  0.73687063  0.17121331  0.69708329     0.42000
Cu34       Cu  0.69648558  0.16750105  0.73957424     0.43900
N35         N  0.66971362  0.13279541  0.71692637    -0.34200
N36         N  0.67146776  0.14528019  0.73447683    -0.28400
C37         C  0.65428355  0.14159489  0.74765940    -0.04500
C38         C  0.64105667  0.12609662  0.73793699     0.07700
C39         C  0.65129657  0.12088883  0.71846176     0.01500
H40         H  0.65149351  0.14978593  0.76307899     0.09100
H41         H  0.64585112  0.10919072  0.70638144     0.08200
N42         N  0.72094962  0.19088447  0.73923998    -0.35600
N43         N  0.73552748  0.19250577  0.72337520    -0.27800
C44         C  0.74786566  0.21035445  0.72677750    -0.03000
C45         C  0.74071292  0.22042106  0.74572286     0.05600
C46         C  0.72367687  0.20760205  0.75323445     0.03700
H47         H  0.76067087  0.21594118  0.71593362     0.08800
H48         H  0.71338148  0.21075567  0.76726464     0.07600
N49         N  0.12761249  0.18814318  0.72378097    -0.26800
N50         N  0.14090802  0.18689346  0.74074602    -0.34700
C51         C  0.13807427  0.20461679  0.75340276     0.01500
C52         C  0.12233253  0.21768038  0.74386352     0.07600
C53         C  0.11605458  0.20676969  0.72511029    -0.05500
H54         H  0.14709027  0.20795072  0.76822620     0.08200
H55         H  0.10397306  0.21196635  0.71332427     0.09400
Cu56       Cu  0.16341390  0.16201264  0.74507266     0.44200
Cu57       Cu  0.12592520  0.16457097  0.69953327     0.42000
Cu58       Cu  0.16526603  0.12068272  0.70253333     0.43900
N59         N  0.18728857  0.13812305  0.74308735    -0.34200
N60         N  0.18825410  0.12339329  0.72733899    -0.28400
C61         C  0.20644158  0.11135750  0.72994659    -0.04500
C62         C  0.21742218  0.11878418  0.74830312     0.07700
C63         C  0.20473173  0.13575234  0.75622724     0.01500
H64         H  0.21148057  0.09841690  0.71905962     0.09100
H65         H  0.20797986  0.14576433  0.77039618     0.08200
N66         N  0.14138294  0.12281267  0.67854263    -0.35600
N67         N  0.12717176  0.13901217  0.67736683    -0.27800
C68         C  0.11467835  0.13630518  0.65951533    -0.03000
C69         C  0.12130395  0.11748029  0.64890049     0.05600
C70         C  0.13825191  0.10932429  0.66147393     0.03700
H71         H  0.10208526  0.14754912  0.65432607     0.08800
H72         H  0.14784933  0.09484412  0.65825750     0.07600
N73         N  0.12546808  0.67599646  0.72627886    -0.26800
N74         N  0.14074450  0.67698864  0.74153944    -0.34700
C75         C  0.13901903  0.65940292  0.75458448     0.01500
C76         C  0.12194911  0.64663176  0.74714043     0.07600
C77         C  0.11372714  0.65762152  0.72917363    -0.05500
H78         H  0.14988818  0.65578564  0.76803116     0.08200
H79         H  0.10043645  0.65243713  0.71874917     0.09400
Cu80       Cu  0.16470657  0.70091685  0.74300193     0.44200
Cu81       Cu  0.12189624  0.69904086  0.70143416     0.42000
Cu82       Cu  0.16317759  0.74140223  0.70050598     0.43900
N83         N  0.18854832  0.72468436  0.73909436    -0.34200
N84         N  0.18796115  0.73953409  0.72345796    -0.28400
C85         C  0.20602963  0.75197826  0.72468249    -0.04500
C86         C  0.21863693  0.74459158  0.74191464     0.07700
C87         C  0.20702979  0.72727218  0.75069565     0.01500
H88         H  0.20991343  0.76515203  0.71356984     0.09100
H89         H  0.21174546  0.71719040  0.76440535     0.08200
N90         N  0.13829367  0.73899891  0.67770269    -0.35600
N91         N  0.12318910  0.72355128  0.67779840    -0.27800
C92         C  0.11037537  0.72606085  0.66007670    -0.03000
C93         C  0.11786788  0.74388601  0.64826324     0.05600
C94         C  0.13551802  0.75168686  0.66002469     0.03700
H95         H  0.09704378  0.71529816  0.65573034     0.08800
H96         H  0.14590448  0.76535294  0.65579774     0.07600
N97         N  0.19438371  0.71933946  0.13100652    -0.26800
N98         N  0.19457204  0.73541937  0.14543470    -0.34700
C99         C  0.21281163  0.74735739  0.14248329     0.01500
C100        C  0.22455858  0.73836228  0.12535246     0.07600
C101        C  0.21238551  0.72064937  0.11847867    -0.05500
H102        H  0.21719711  0.76154222  0.15207240     0.08200
H103        H  0.21642277  0.70938738  0.10545976     0.09400
Cu104      Cu  0.17028169  0.73991898  0.16883308     0.44200
Cu105      Cu  0.17007702  0.69594925  0.12905125     0.42000
Cu106      Cu  0.12645811  0.69969378  0.16842195     0.43900
N107        N  0.14531015  0.73886381  0.19192953    -0.34200
N108        N  0.12949725  0.72413109  0.19187007    -0.28400
C109        C  0.11681907  0.72715509  0.20960106    -0.04500
C110        C  0.12499750  0.74462653  0.22143363     0.07700
C111        C  0.14304527  0.75166088  0.20967286     0.01500
H112        H  0.10300554  0.71698780  0.21388409     0.09100
H113        H  0.15395462  0.76490806  0.21389295     0.08200
N114        N  0.12800626  0.67570127  0.14438180    -0.35600
N115        N  0.14419377  0.67424481  0.13014912    -0.27800
C116        C  0.14109429  0.65657983  0.11747894    -0.03000
C117        C  0.12197190  0.64637281  0.12396901     0.05600
C118        C  0.11409364  0.65900636  0.14105909     0.03700
H119        H  0.15224037  0.65126411  0.10481745     0.08800
H120        H  0.09947067  0.65611849  0.15057777     0.07600
N121        N  0.72384770  0.67700913  0.12524523    -0.26800
N122        N  0.73839836  0.67585326  0.14115263    -0.34700
C123        C  0.75017310  0.65749298  0.13880656     0.01500
C124        C  0.74263520  0.64650693  0.12058940     0.07600
C125        C  0.72593666  0.65932528  0.11237334    -0.05500
H126        H  0.76298085  0.65231187  0.14980630     0.08200
H127        H  0.71593602  0.65596218  0.09820218     0.09400
Cu128      Cu  0.74124303  0.69870907  0.16583815     0.44200
Cu129      Cu  0.70129563  0.70212684  0.12230578     0.42000
Cu130      Cu  0.70293391  0.74350636  0.16456846     0.43900
N131        N  0.74093841  0.72361973  0.18861917    -0.34200
N132        N  0.72711661  0.74016887  0.18797053    -0.28400
C133        C  0.73095489  0.75335656  0.20508441    -0.04500
C134        C  0.74791519  0.74460274  0.21719490     0.07700
C135        C  0.75385953  0.72575196  0.20623768     0.01500
H136        H  0.72184730  0.76807747  0.20860942     0.09100
H137        H  0.76630155  0.71415431  0.21098954     0.08200
N138        N  0.67974068  0.74275561  0.13995925    -0.35600
N139        N  0.67928707  0.72780751  0.12437444    -0.27800
C140        C  0.66186887  0.73143577  0.11150786    -0.03000
C141        C  0.65078186  0.74946393  0.11942868     0.05600
C142        C  0.66258896  0.75623622  0.13746869     0.03700
H143        H  0.65717915  0.72124112  0.09785114     0.08800
H144        H  0.65876753  0.76971765  0.14824668     0.07600
N145        N  0.73556788  0.19416265  0.14354219    -0.26800
N146        N  0.72164923  0.19279075  0.12710282    -0.34700
C147        C  0.72505770  0.20970570  0.11349848     0.01500
C148        C  0.74190824  0.22235420  0.12181708     0.07600
C149        C  0.74816732  0.21195607  0.14087112    -0.05500
H150        H  0.71574127  0.21275168  0.09880860     0.08200
H151        H  0.76056765  0.21725490  0.15228313     0.09400
Cu152      Cu  0.69792379  0.16857908  0.12469992     0.44200
Cu153      Cu  0.73624699  0.17235766  0.16936520     0.42000
Cu154      Cu  0.69670325  0.12847510  0.16869302     0.43900
N155        N  0.67490653  0.14367973  0.12705171    -0.34200
N156        N  0.67452324  0.12902237  0.14291470    -0.28400
C157        C  0.65703123  0.11596262  0.14015100    -0.04500
C158        C  0.64579155  0.12277905  0.12175527     0.07700
C159        C  0.65764598  0.14035473  0.11385759     0.01500
H160        H  0.65236716  0.10298185  0.15119149     0.09100
H161        H  0.65372474  0.15032625  0.09981862     0.08200
N162        N  0.71970480  0.13268975  0.19339180    -0.35600
N163        N  0.73405234  0.14883448  0.19354712    -0.27800
C164        C  0.74668703  0.14708935  0.21140584    -0.03000
C165        C  0.74005383  0.12894347  0.22310911     0.05600
C166        C  0.72285849  0.12022628  0.21122941     0.03700
H167        H  0.75982908  0.15817397  0.21551173     0.08800
H168        H  0.71357078  0.10569274  0.21508036     0.07600
N169        N  0.80659279  0.46627274  0.80852477    -0.26800
N170        N  0.82185743  0.47700702  0.81939900    -0.34700
C171        C  0.81959672  0.49851101  0.81551055     0.01500
C172        C  0.80198139  0.50141101  0.80163881     0.07600
C173        C  0.79415078  0.48062728  0.79753877    -0.05500
H174        H  0.82963536  0.51114311  0.82272226     0.08200
H175        H  0.78028341  0.47627204  0.78748172     0.09400
Cu176      Cu  0.84404135  0.46185307  0.84010644     0.44200
Cu177      Cu  0.80307281  0.43265106  0.80941866     0.42000
Cu178      Cu  0.83925749  0.40272783  0.84519914     0.43900
N179        N  0.86294315  0.44308095  0.86109996    -0.34200
N180        N  0.86122716  0.42162825  0.86295962    -0.28400
C181        C  0.87561677  0.41462459  0.87801760    -0.04500
C182        C  0.88682834  0.43251888  0.88606608     0.07700
C183        C  0.87838700  0.45027762  0.87499232     0.01500
H184        H  0.87765742  0.39776164  0.88284070     0.09100
H185        H  0.88308759  0.46720008  0.87689610     0.08200
N186        N  0.81631660  0.38790532  0.82497179    -0.35600
N187        N  0.80315282  0.39893290  0.81190608    -0.27800
C188        C  0.79083479  0.38479658  0.80046985    -0.03000
C189        C  0.79646247  0.36380825  0.80660392     0.05600
C190        C  0.81267160  0.36641158  0.82219816     0.03700
H191        H  0.77899232  0.38945893  0.78822367     0.08800
H192        H  0.82132293  0.35361608  0.83074939     0.07600
N193        N  0.06440355  0.39734820  0.80968108    -0.26800
N194        N  0.04928014  0.38684725  0.82102919    -0.34700
C195        C  0.05094816  0.36532608  0.81700510     0.01500
C196        C  0.06799497  0.36214881  0.80254602     0.07600
C197        C  0.07621161  0.38273350  0.79826608    -0.05500
H198        H  0.04062072  0.35290699  0.82419033     0.08200
H199        H  0.08964692  0.38679640  0.78749997     0.09400
Cu200      Cu  0.02712145  0.40202754  0.84165661     0.44200
Cu201      Cu  0.06788821  0.43111782  0.80962694     0.42000
Cu202      Cu  0.02822466  0.46080972  0.84214302     0.43900
N203        N  0.00673745  0.42086438  0.86104296    -0.34200
N204        N  0.00704785  0.44243899  0.86110519    -0.28400
C205        C  0.99214231  0.44977660  0.87549879    -0.04500
C206        C  0.98200668  0.43193878  0.88494415     0.07700
C207        C  0.99164193  0.41387320  0.87541853     0.01500
H208        H  0.98910233  0.46682324  0.87899290     0.09100
H209        H  0.98809835  0.39690469  0.87880563     0.08200
N210        N  0.05164571  0.47570238  0.82276377    -0.35600
N211        N  0.06641739  0.46499907  0.81116243    -0.27800
C212        C  0.07896494  0.47952683  0.80040940    -0.03000
C213        C  0.07161374  0.50029607  0.80543682     0.05600
C214        C  0.05430515  0.49724754  0.81962761     0.03700
H215        H  0.09207866  0.47528230  0.78931729     0.08800
H216        H  0.04422710  0.50978057  0.82696687     0.07600
N217        N  0.80185915  0.40112452  0.05323339    -0.26800
N218        N  0.81796122  0.39049303  0.04353835    -0.34700
C219        C  0.81636088  0.36917142  0.04844215     0.01500
C220        C  0.79827440  0.36613417  0.06175119     0.07600
C221        C  0.78948052  0.38681156  0.06442688    -0.05500
H222        H  0.82759585  0.35677768  0.04274799     0.08200
H223        H  0.77505724  0.39114800  0.07369910     0.09400
Cu224      Cu  0.84114985  0.40532967  0.02369688     0.44200
Cu225      Cu  0.79812829  0.43469102  0.05142637     0.42000
Cu226      Cu  0.83841217  0.46426923  0.01928495     0.43900
N227        N  0.86198247  0.42363244  0.00414374    -0.34200
N228        N  0.86108223  0.44515006  0.00260553    -0.28400
C229        C  0.87645656  0.45192128  0.98839250    -0.04500
C230        C  0.88747033  0.43379941  0.98055477     0.07700
C231        C  0.87786702  0.41614841  0.99088212     0.01500
H232        H  0.87911153  0.46875971  0.98377116     0.09100
H233        H  0.88189267  0.39909028  0.98868781     0.08200
N234        N  0.81441224  0.47932002  0.03814451    -0.35600
N235        N  0.79982699  0.46843180  0.04981671    -0.27800
C236        C  0.78761909  0.48267213  0.06123388    -0.03000
C237        C  0.79479030  0.50354000  0.05652758     0.05600
C238        C  0.81174202  0.50084075  0.04176867     0.03700
H239        H  0.77483711  0.47813405  0.07259053     0.08800
H240        H  0.82191193  0.51352923  0.03483448     0.07600
N241        N  0.05993204  0.46663139  0.06050653    -0.26800
N242        N  0.04820426  0.47712322  0.04574507    -0.34700
C243        C  0.05075117  0.49873223  0.04859211     0.01500
C244        C  0.06469484  0.50211018  0.06606259     0.07600
C245        C  0.07013968  0.48134583  0.07324444    -0.05500
H246        H  0.04323062  0.51107333  0.03845513     0.08200
H247        H  0.08080238  0.47721184  0.08670073     0.09400
Cu248      Cu  0.02895099  0.46186320  0.02250831     0.44200
Cu249      Cu  0.06196305  0.43279240  0.06225770     0.42000
Cu250      Cu  0.02934461  0.40326044  0.02220815     0.43900
N251        N  0.00929982  0.44330097  0.00219516    -0.34200
N252        N  0.00942832  0.42172975  0.00203960    -0.28400
C253        C  0.99428248  0.41457418  0.98781383    -0.04500
C254        C  0.98411797  0.43254423  0.97866516     0.07700
C255        C  0.99408079  0.45047923  0.98809464     0.01500
H256        H  0.99072586  0.39756587  0.98462533     0.09100
H257        H  0.99033465  0.46748769  0.98518861     0.08200
N258        N  0.04900169  0.38832782  0.04534024    -0.35600
N259        N  0.06080996  0.39894057  0.05999500    -0.27800
C260        C  0.07140800  0.38432977  0.07252106    -0.03000
C261        C  0.06599882  0.36356438  0.06537632     0.05600
C262        C  0.05175110  0.36675206  0.04815536     0.03700
H263        H  0.08242216  0.38851120  0.08569205     0.08800
H264        H  0.04389215  0.35428920  0.03839969     0.07600
O265        O  0.91109316  0.41453980  0.91042896    -0.72400
O266        O  0.95861992  0.41449032  0.95564380    -0.73400
O267        O  0.91202673  0.41505565  0.95686116    -0.62000
O268        O  0.95756813  0.41416559  0.90937413    -0.70500
O269        O  0.95809164  0.45041153  0.90926258    -0.70000
O270        O  0.91217831  0.45128739  0.95617682    -0.61300
O271        O  0.95880897  0.45073559  0.95552853    -0.73800
O272        O  0.91169376  0.45077095  0.90973409    -0.72600
Cu273      Cu  0.93480326  0.41329629  0.93310880     1.04600
Cu274      Cu  0.93519529  0.45206644  0.93269553     1.04300
C275        C  0.90399891  0.43262461  0.90286389     0.93800
C276        C  0.96632675  0.43259527  0.96256097     0.92900
C277        C  0.90477113  0.43334783  0.96382842     0.85000
C278        C  0.96506910  0.43217049  0.90195404     0.91300
N279        N  0.39826026  0.80617094  0.80555926    -0.26800
N280        N  0.38728920  0.81861895  0.81940682    -0.34700
C281        C  0.36575349  0.81547107  0.81630366     0.01500
C282        C  0.36310125  0.80045480  0.79961792     0.07600
C283        C  0.38403259  0.79489480  0.79320016    -0.05500
H284        H  0.35296792  0.82382090  0.82521612     0.08200
H285        H  0.38859435  0.78355307  0.78042800     0.09400
Cu286      Cu  0.40207676  0.84021802  0.84101994     0.44200
Cu287      Cu  0.43201676  0.80535081  0.80359986     0.42000
Cu288      Cu  0.46121514  0.84393021  0.83717025     0.43900
N289        N  0.42092110  0.86138346  0.85972618    -0.34200
N290        N  0.44244945  0.86270552  0.85825181    -0.28400
C291        C  0.44973548  0.87755903  0.87270851    -0.04500
C292        C  0.43195175  0.88603203  0.88377167     0.07700
C293        C  0.41393267  0.87546474  0.87511292     0.01500
H294        H  0.46674005  0.88175393  0.87507565     0.09100
H295        H  0.39702775  0.87765068  0.87980667     0.08200
N296        N  0.47649306  0.82214052  0.81618546    -0.35600
N297        N  0.46574760  0.80780901  0.80413231    -0.27800
C298        C  0.48017692  0.79544335  0.79312032    -0.03000
C299        C  0.50102421  0.80233200  0.79848038     0.05600
C300        C  0.49808363  0.81932310  0.81310233     0.03700
H301        H  0.47581566  0.78227904  0.78216413     0.08800
H302        H  0.51070416  0.82858355  0.82130352     0.07600
N303        N  0.46559515  0.06014661  0.80766121    -0.26800
N304        N  0.47717108  0.04724728  0.82055023    -0.34700
C305        C  0.49855051  0.05093473  0.81690278     0.01500
C306        C  0.50038119  0.06699878  0.80114135     0.07600
C307        C  0.47923297  0.07248280  0.79565763    -0.05500
H308        H  0.51176849  0.04245340  0.82498269     0.08200
H309        H  0.47412240  0.08419609  0.78346801     0.09400
Cu310      Cu  0.46341335  0.02503638  0.84232111     0.44200
Cu311      Cu  0.43188691  0.05988978  0.80577759     0.42000
Cu312      Cu  0.40419793  0.02257379  0.84129401     0.43900
N313        N  0.44492926  0.00473673  0.86240241    -0.34200
N314        N  0.42333166  0.00410564  0.86195857    -0.28400
C315        C  0.41616913  0.98945828  0.87662743    -0.04500
C316        C  0.43408871  0.98035793  0.88679670     0.07700
C317        C  0.45209749  0.99037319  0.87742028     0.01500
H318        H  0.39915919  0.98556492  0.87947375     0.09100
H319        H  0.46911165  0.98735441  0.88111196     0.08200
N320        N  0.38815721  0.04253970  0.81942031    -0.35600
N321        N  0.39831721  0.05633767  0.80633606    -0.27800
C322        C  0.38339752  0.06753906  0.79477900    -0.09500
C323        C  0.36284729  0.06043946  0.80098628     0.05600
C324        C  0.36647243  0.04452197  0.81659535     0.03700
H325        H  0.38721212  0.08035314  0.78325060     0.08800
H326        H  0.35431616  0.03540747  0.82551823     0.07600
N327        N  0.40147039  0.80578270  0.06045317    -0.26800
N328        N  0.39011210  0.81870969  0.04740244    -0.34700
C329        C  0.36867756  0.81509546  0.05056101     0.01500
C330        C  0.36641249  0.79909963  0.06629244     0.07600
C331        C  0.38750199  0.79355186  0.07221675    -0.05500
H332        H  0.35570865  0.82323917  0.04176273     0.08200
H333        H  0.39233901  0.78142872  0.08411449     0.09400
Cu334      Cu  0.40376507  0.84021127  0.02520134     0.44200
Cu335      Cu  0.43540625  0.80467894  0.06139870     0.42000
Cu336      Cu  0.46256259  0.84027063  0.02342445     0.43900
N337        N  0.42171186  0.85970704  0.00423374    -0.34200
N338        N  0.44330077  0.85966189  0.00373841    -0.28400
C339        C  0.45021961  0.87401015  0.98867880    -0.04500
C340        C  0.43210840  0.88352090  0.97922143     0.07700
C341        C  0.41426230  0.87412317  0.98943407     0.01500
H342        H  0.46718891  0.87734833  0.98500980     0.09100
H343        H  0.39719183  0.87759018  0.98647555     0.08200
N344        N  0.47902478  0.81939854  0.04411280    -0.35600
N345        N  0.46917642  0.80627227  0.05814099    -0.27800
C346        C  0.48445722  0.79510307  0.06928723    -0.03000
C347        C  0.50486554  0.80159432  0.06191403     0.05600
C348        C  0.50076619  0.81698076  0.04592646     0.03700
H349        H  0.48099199  0.78341949  0.08208931     0.08800
H350        H  0.51270916  0.82588445  0.03639320     0.07600
N351        N  0.39846773  0.06021395  0.05614165    -0.26800
N352        N  0.38791413  0.04428457  0.04608115    -0.34700
C353        C  0.36636288  0.04639588  0.04997749     0.01500
C354        C  0.36321019  0.06453643  0.06312931     0.07600
C355        C  0.38393560  0.07289608  0.06663940    -0.05500
H356        H  0.35394635  0.03534981  0.04395545     0.08200
H357        H  0.38817820  0.08707540  0.07630209     0.09400
Cu358      Cu  0.40341526  0.02055496  0.02746016     0.44200
Cu359      Cu  0.43221801  0.06346091  0.05619549     0.42000
Cu360      Cu  0.46265494  0.02269444  0.02600244     0.43900
N361        N  0.42254079  0.00054077  0.00785641    -0.34200
N362        N  0.44413717  0.00127994  0.00727151    -0.28400
C363        C  0.45138373  0.98707388  0.99211339    -0.04500
C364        C  0.43346717  0.97703999  0.98265787     0.07700
C365        C  0.41547349  0.98590951  0.99306940     0.01500
H366        H  0.46838735  0.98463568  0.98793406     0.09100
H367        H  0.39846929  0.98234837  0.98982513     0.08200
N368        N  0.47716894  0.04668282  0.04513690    -0.35600
N369        N  0.46608069  0.06168521  0.05602923    -0.27800
C370        C  0.48020604  0.07444962  0.06702946    -0.03000
C371        C  0.50120945  0.06713885  0.06284462     0.05600
C372        C  0.49863402  0.04953788  0.04888332     0.03700
H373        H  0.47551582  0.08796402  0.07741238     0.08800
H374        H  0.51142760  0.03932021  0.04222235     0.07600
O375        O  0.41424346  0.90966936  0.90900836    -0.72400
O376        O  0.41515814  0.95438354  0.95702805    -0.73400
O377        O  0.41550168  0.95596934  0.91052814    -0.62000
O378        O  0.41408980  0.90823816  0.95539005    -0.70500
O379        O  0.45038948  0.90764460  0.95518563    -0.70000
O380        O  0.45179591  0.95548719  0.91067406    -0.61300
O381        O  0.45144281  0.95380971  0.95712813    -0.73800
O382        O  0.45053089  0.90924035  0.90878622    -0.72600
Cu383      Cu  0.41347567  0.93211507  0.93296549     1.04600
Cu384      Cu  0.45230669  0.93150893  0.93294041     1.04300
C385        C  0.43225167  0.90242338  0.90132653     0.93800
C386        C  0.43337927  0.96099860  0.96477109     0.92900
C387        C  0.43380869  0.96318035  0.90348895     0.85000
C388        C  0.43214612  0.90054088  0.96242829     0.91300
N389        N  0.13170570  0.14811715  0.19654529    -0.26800
N390        N  0.14749623  0.13342625  0.19748894    -0.34700
C391        C  0.14468017  0.12114349  0.21548218     0.01500
C392        C  0.12620171  0.12846077  0.22627814     0.07600
C393        C  0.11839455  0.14555683  0.21382753    -0.05500
H394        H  0.15519508  0.10778722  0.22025804     0.08200
H395        H  0.10416402  0.15549530  0.21715213     0.09400
Cu396      Cu  0.17189866  0.13057533  0.17408180     0.44200
Cu397      Cu  0.12884944  0.17103913  0.17197103     0.42000
Cu398      Cu  0.16799002  0.16731202  0.12785327     0.43900
N399        N  0.19381204  0.13063544  0.14817031    -0.34200
N400        N  0.19213153  0.14378526  0.13113918    -0.28400
C401        C  0.20890398  0.13998055  0.11745638    -0.04500
C402        C  0.22187984  0.12372968  0.12631891     0.07700
C403        C  0.21176668  0.11818415  0.14580170     0.01500
H404        H  0.21160396  0.14862223  0.10227778     0.09100
H405        H  0.21730098  0.10630251  0.15763531     0.08200
N406        N  0.14387580  0.19102819  0.12966736    -0.35600
N407        N  0.12958989  0.19234735  0.14583103    -0.27800
C408        C  0.11681963  0.20991573  0.14275541    -0.03000
C409        C  0.12343307  0.22018947  0.12377601     0.05600
C410        C  0.14061815  0.20779637  0.11588817     0.03700
H411        H  0.10410180  0.21518612  0.15385840     0.08800
H412        H  0.15030596  0.21096911  0.10143750     0.07600
N413        N  0.80472909  0.80685804  0.46434790    -0.26800
N414        N  0.81536805  0.82152906  0.47611784    -0.34700
C415        C  0.81077702  0.81821852  0.49738096     0.01500
C416        C  0.79674038  0.80054291  0.49897719     0.07600
C417        C  0.79327588  0.79376439  0.47774376    -0.05500
H418        H  0.81743700  0.82771896  0.51070908     0.08200
H419        H  0.78310640  0.78033536  0.47240027     0.09400
Cu420      Cu  0.83653822  0.84456548  0.46270353     0.44200
Cu421      Cu  0.80578402  0.80506230  0.43062676     0.42000
Cu422      Cu  0.84216892  0.84163485  0.40346208     0.43900
N423        N  0.85828602  0.86351736  0.44462923    -0.34200
N424        N  0.86019063  0.86219541  0.42313922    -0.28400
C425        C  0.87568143  0.87614932  0.41634536    -0.04500
C426        C  0.88403912  0.88674739  0.43437523     0.07700
C427        C  0.87268727  0.87839707  0.45208230     0.01500
H428        H  0.88054692  0.87832540  0.39948726     0.09100
H429        H  0.87473132  0.88278090  0.46908174     0.08200
N430        N  0.82204402  0.82024862  0.38696628    -0.35600
N431        N  0.80853906  0.80674394  0.39700686    -0.27800
C432        C  0.79751032  0.79516350  0.38197893    -0.03000
C433        C  0.80446775  0.80171159  0.36149024     0.05600
C434        C  0.82003409  0.81764369  0.36526655     0.03700
H435        H  0.78524793  0.78297851  0.38569276     0.08800
H436        H  0.82929680  0.82659919  0.35315486     0.07600
N437        N  0.06281959  0.81089452  0.40059887    -0.26800
N438        N  0.04862389  0.82286949  0.38957635    -0.34700
C439        C  0.05127910  0.81907153  0.36808127     0.01500
C440        C  0.06788998  0.80395726  0.36543921     0.07600
C441        C  0.07481245  0.79913159  0.38640142    -0.05500
H442        H  0.04178365  0.82671506  0.35530614     0.08200
H443        H  0.08776903  0.78804366  0.39099130     0.09400
Cu444      Cu  0.02616750  0.84387483  0.40407695     0.44200
Cu445      Cu  0.06532792  0.81086436  0.43445362     0.42000
Cu446      Cu  0.02724252  0.84580278  0.46300484     0.43900
N447        N  0.00540013  0.86338638  0.42261648    -0.34200
N448        N  0.00586399  0.86402435  0.44420213    -0.28400
C449        C  0.99060685  0.87812471  0.45135700    -0.04500
C450        C  0.98002715  0.88680052  0.43341650     0.07700
C451        C  0.98981494  0.87712593  0.41545171     0.01500
H452        H  0.98756527  0.88187905  0.46836276     0.09100
H453        H  0.98598833  0.87994719  0.39843589     0.08200
N454        N  0.04923312  0.82546042  0.47866312    -0.35600
N455        N  0.06316971  0.81261792  0.46829170    -0.27800
C456        C  0.07430923  0.80081856  0.48309375    -0.03000
C457        C  0.06701655  0.80653839  0.50374759     0.05600
C458        C  0.05115397  0.82222503  0.50029917     0.03700
H459        H  0.08655966  0.78871529  0.47911177     0.08800
H460        H  0.04128965  0.83025580  0.51258484     0.07600
N461        N  0.80873657  0.06391582  0.46571729    -0.26800
N462        N  0.82132849  0.05037359  0.47683695    -0.34700
C463        C  0.81834359  0.05389700  0.49832007     0.01500
C464        C  0.80308969  0.07037929  0.50080467     0.07600
C465        C  0.79733667  0.07634879  0.47980277    -0.05500
H466        H  0.82650700  0.04497794  0.51119053     0.08200
H467        H  0.78579796  0.08886722  0.47509848     0.09400
Cu468      Cu  0.84185080  0.02763710  0.46225240     0.44200
Cu469      Cu  0.80782010  0.06501903  0.43195347     0.42000
Cu470      Cu  0.84365309  0.02802264  0.40292306     0.43900
N471        N  0.86124910  0.00680767  0.44377357    -0.34200
N472        N  0.86189381  0.00701291  0.42217497    -0.28400
C473        C  0.87615669  0.99181205  0.41525180    -0.04500
C474        C  0.88492083  0.98157295  0.43334606     0.07700
C475        C  0.87512515  0.99146296  0.45116168     0.01500
H476        H  0.87998914  0.98859902  0.39829380     0.09100
H477        H  0.87797504  0.98790079  0.46823028     0.08200
N478        N  0.82330578  0.05027767  0.38757796    -0.35600
N479        N  0.81016675  0.06368114  0.39826402    -0.27800
C480        C  0.79893815  0.07574089  0.38380380    -0.03000
C481        C  0.80530234  0.06967547  0.36298773     0.05600
C482        C  0.82078307  0.05347637  0.36598771     0.03700
H483        H  0.78681748  0.08785371  0.38813368     0.08800
H484        H  0.82954284  0.04464567  0.35341847     0.07600
N485        N  0.05513756  0.06322485  0.40141844    -0.26800
N486        N  0.04466756  0.04804896  0.39016856    -0.34700
C487        C  0.04841544  0.05115989  0.36875388     0.01500
C488        C  0.06187426  0.06916850  0.36641182     0.07600
C489        C  0.06578273  0.07641923  0.38745378    -0.05500
H490        H  0.04179467  0.04107280  0.35584327     0.08200
H491        H  0.07596934  0.09002612  0.39229154     0.09400
Cu492      Cu  0.02528048  0.02412625  0.40423311     0.44200
Cu493      Cu  0.05529709  0.06491495  0.43522451     0.42000
Cu494      Cu  0.01942489  0.02786304  0.46304049     0.43900
N495        N  0.00425136  0.00473920  0.42235274    -0.34200
N496        N  0.00202918  0.00646710  0.44376938    -0.28400
C497        C  0.98691807  0.99216299  0.45065994    -0.04500
C498        C  0.97918360  0.98094082  0.43272712     0.07700
C499        C  0.99046539  0.98927645  0.41500370     0.01500
H500        H  0.98186365  0.99020081  0.46748794     0.09100
H501        H  0.98873267  0.98456065  0.39805790     0.08200
N502        N  0.04061988  0.04844751  0.47912925    -0.35600
N503        N  0.05409936  0.06184442  0.46890963    -0.27800
C504        C  0.06654727  0.07210892  0.48377797    -0.03000
C505        C  0.06052312  0.06489232  0.50436919     0.05600
C506        C  0.04398486  0.04991196  0.50076794     0.03700
H507        H  0.07923308  0.08378721  0.47986385     0.08800
H508        H  0.03505600  0.04071039  0.51294130     0.07600
O509        O  0.95497908  0.91024651  0.41532337    -0.72400
O510        O  0.90875836  0.95675489  0.41541515    -0.73400
O511        O  0.95510437  0.95644278  0.41474854    -0.62000
O512        O  0.90857695  0.91042785  0.41607300    -0.70500
O513        O  0.90869819  0.91075978  0.45235685    -0.70000
O514        O  0.95503043  0.95696646  0.45103904    -0.61300
O515        O  0.90877262  0.95705527  0.45169296    -0.73800
O516        O  0.95530074  0.91068441  0.45159442    -0.72600
Cu517      Cu  0.93181315  0.93342652  0.41412561     1.04600
Cu518      Cu  0.93197202  0.93385636  0.45294826     1.04300
C519        C  0.96257580  0.90329564  0.43345206     0.93800
C520        C  0.90155645  0.96428932  0.43351009     0.92900
C521        C  0.96233937  0.96397451  0.43279412     0.85000
C522        C  0.90125313  0.90340922  0.43431929     0.91300
C523        C  0.08567130  0.10498318  0.26715993    -0.05000
C524        C  0.09837869  0.10452546  0.28634101     0.09200
C525        C  0.12026388  0.11171312  0.28582657    -0.02300
C526        C  0.12947267  0.11932459  0.26613626    -0.00600
C527        C  0.11672535  0.11995901  0.24689991    -0.04200
C528        C  0.09478611  0.11271029  0.24747928     0.02800
C529        C  0.08893568  0.09555682  0.30694286     0.09600
C530        C  0.13327030  0.11120912  0.30561684     0.35500
C531        C  0.08180459  0.11238326  0.22766434     0.39000
C532        C  0.09114151  0.07316146  0.31164430    -0.04600
C533        C  0.08219664  0.06449136  0.33099477     0.02600
C534        C  0.07097234  0.07824235  0.34581354    -0.04200
C535        C  0.06871478  0.10071976  0.34098184    -0.00400
C536        C  0.07769466  0.10932762  0.32158234    -0.03000
C537        C  0.10277284  0.05909120  0.29651387     0.36300
C538        C  0.05657075  0.11491611  0.35557601     0.39900
C539        C  0.08521370  0.04152488  0.33588426     0.39000
C540        C  0.07532566  0.13234359  0.31656335     0.35900
C541        C  0.06329077  0.09716547  0.26769425     0.36600
C542        C  0.15192883  0.12692529  0.26582968     0.39900
N543        N  0.08764252  0.02318775  0.33970184    -0.38200
N544        N  0.11208473  0.04796493  0.28438817    -0.39800
N545        N  0.04687238  0.12627715  0.36717451    -0.37500
N546        N  0.07344435  0.15069649  0.31251889    -0.39900
N547        N  0.14360357  0.11079587  0.32143285    -0.39700
N548        N  0.16986066  0.13294064  0.26557937    -0.37300
N549        N  0.07144014  0.11204264  0.21186449    -0.38400
N550        N  0.04546299  0.09086756  0.26820183    -0.40000
C551        C  0.27887480  0.12097124  0.10110655    -0.05000
C552        C  0.28190658  0.09826193  0.09907204     0.09200
C553        C  0.26551422  0.08383693  0.10641217    -0.02300
C554        C  0.24599038  0.09207782  0.11552602    -0.00600
C555        C  0.24269972  0.11489368  0.11726340    -0.04200
C556        C  0.25940359  0.12928839  0.11022273     0.02800
C557        C  0.30272750  0.08948919  0.08975080     0.09600
C558        C  0.26884291  0.06046296  0.10458259     0.35500
C559        C  0.25707143  0.15266621  0.11321255     0.39000
C560        C  0.32073143  0.08564318  0.10355306    -0.04600
C561        C  0.34032454  0.07711572  0.09493734     0.02600
C562        C  0.34224186  0.07285763  0.07228157    -0.04200
C563        C  0.32416099  0.07686906  0.05844749    -0.00400
C564        C  0.30444422  0.08505692  0.06720554    -0.03000
C565        C  0.31906009  0.09061670  0.12666862     0.36300
C566        C  0.32600430  0.07332720  0.03508556     0.39900
C567        C  0.35820621  0.07201063  0.10960975     0.39000
C568        C  0.28593883  0.08920942  0.05301619     0.35900
C569        C  0.29599790  0.13575883  0.09402647     0.36600
C570        C  0.22918409  0.07697664  0.12268877     0.39900
N571        N  0.37243582  0.06787944  0.12133723    -0.38200
N572        N  0.31770843  0.09471899  0.14507574    -0.39800
N573        N  0.32745094  0.07054500  0.01643705    -0.37500
N574        N  0.27115588  0.09254900  0.04172839    -0.39900
N575        N  0.27156849  0.04182958  0.10310265    -0.39700
N576        N  0.21586913  0.06486065  0.12848450    -0.37300
N577        N  0.25526797  0.17131439  0.11564814    -0.38400
N578        N  0.30970288  0.14751712  0.08841345    -0.40000
C579        C  0.09158868  0.30692665  0.06759297    -0.05000
C580        C  0.09000073  0.30210994  0.09004700     0.09200
C581        C  0.08036304  0.31730540  0.10442439    -0.02300
C582        C  0.07237223  0.33734016  0.09638967    -0.00600
C583        C  0.07416807  0.34235972  0.07389979    -0.04200
C584        C  0.08374928  0.32698897  0.05952112     0.02800
C585        C  0.09860486  0.28097593  0.09859641     0.09600
C586        C  0.07867463  0.31221268  0.12750871     0.35500
C587        C  0.08613962  0.33198440  0.03647857     0.39000
C588        C  0.12097400  0.27888491  0.10368510    -0.04600
C589        C  0.12915287  0.25895420  0.11173161     0.02600
C590        C  0.11493559  0.24101573  0.11482619    -0.04200
C591        C  0.09249467  0.24319304  0.10981370    -0.00400
C592        C  0.08438202  0.26311639  0.10165774    -0.03000
C593        C  0.13548686  0.29741324  0.10092485     0.36300
C594        C  0.07780687  0.22479713  0.11255918     0.39900
C595        C  0.15205401  0.25721942  0.11759801     0.39000
C596        C  0.06138699  0.26531181  0.09636371     0.35900
C597        C  0.10137182  0.29117871  0.05282130     0.36600
C598        C  0.06157445  0.35237486  0.11118757     0.39900
N599        N  0.17031294  0.25583223  0.12230924    -0.38200
N600        N  0.14703414  0.31222120  0.09874965    -0.39800
N601        N  0.06607775  0.21013212  0.11475138    -0.37500
N602        N  0.04304520  0.26713052  0.09215394    -0.39900
N603        N  0.07736070  0.30804400  0.14590004    -0.39700
N604        N  0.05288893  0.36428074  0.12303610    -0.37300
N605        N  0.08802505  0.33593547  0.01808698    -0.38400
N606        N  0.10918832  0.27859866  0.04106909    -0.40000
C607        C  0.55971415  0.08828014  0.06610292    -0.05000
C608        C  0.56273322  0.09004171  0.08886827     0.09200
C609        C  0.54539373  0.08479087  0.10313972    -0.02300
C610        C  0.52510555  0.07776788  0.09468890    -0.00600
C611        C  0.52212851  0.07570079  0.07185219    -0.04200
C612        C  0.53948284  0.08123534  0.05760478     0.02800
C613        C  0.58399707  0.09826954  0.09774022     0.09600
C614        C  0.54857774  0.08640098  0.12656123     0.35500
C615        C  0.53628388  0.08055590  0.03413556     0.39000
C616        C  0.58658404  0.12067180  0.10233697    -0.04600
C617        C  0.60665140  0.12864103  0.11039811     0.02600
C618        C  0.62451946  0.11430062  0.11345423    -0.04200
C619        C  0.62192557  0.09185146  0.10863869    -0.00400
C620        C  0.60165854  0.08385200  0.10101638    -0.03000
C621        C  0.56854690  0.13554929  0.09854287     0.36300
C622        C  0.64034122  0.07709515  0.11063938     0.39900
C623        C  0.60860474  0.15152978  0.11614974     0.39000
C624        C  0.59895056  0.06079467  0.09635505     0.35900
C625        C  0.57748929  0.09385351  0.05143180     0.36600
C626        C  0.50751148  0.07220717  0.10958630     0.39900
N627        N  0.61010483  0.16978893  0.12077203    -0.38200
N628        N  0.55413627  0.14735876  0.09540615    -0.39800
N629        N  0.65505722  0.06532738  0.11209271    -0.37500
N630        N  0.59673189  0.04240213  0.09264214    -0.39900
N631        N  0.55115514  0.08763272  0.14524724    -0.39700
N632        N  0.49345552  0.06786916  0.12148744    -0.37300
N633        N  0.53369650  0.08012482  0.01541502    -0.38400
N634        N  0.59172819  0.09826690  0.03978474    -0.40000
C635        C  0.74406394  0.28033799  0.09922796    -0.05000
C636        C  0.76675993  0.28353951  0.09682200     0.09200
C637        C  0.78135731  0.26675921  0.10275663    -0.02300
C638        C  0.77327173  0.24662033  0.11053065    -0.00600
C639        C  0.75049274  0.24337803  0.11307050    -0.04200
C640        C  0.73595528  0.26049330  0.10763175     0.02800
C641        C  0.77522212  0.30468363  0.08795903     0.09600
C642        C  0.80473099  0.27037242  0.10106651     0.35500
C643        C  0.71269012  0.25816409  0.11157676     0.39000
C644        C  0.77676823  0.32315626  0.10162251    -0.04600
C645        C  0.78423522  0.34325466  0.09315559     0.02600
C646        C  0.79000189  0.34507367  0.07080048    -0.04200
C647        C  0.78805835  0.32653204  0.05709313    -0.00400
C648        C  0.78100312  0.30638521  0.06573073    -0.03000
C649        C  0.77070637  0.32136363  0.12447479     0.36300
C650        C  0.79229528  0.32831189  0.03383510     0.39900
C651        C  0.78645409  0.36181804  0.10770532     0.39000
C652        C  0.77948373  0.28736043  0.05168693     0.35900
C653        C  0.72905879  0.29762327  0.09315275     0.36600
C654        C  0.78843706  0.22906318  0.11527511     0.39900
N655        N  0.78812963  0.37656730  0.11941067    -0.38200
N656        N  0.76577478  0.31984598  0.14266746    -0.39800
N657        N  0.79557668  0.32974286  0.01526686    -0.37500
N658        N  0.77838077  0.27215856  0.04051120    -0.39900
N659        N  0.82337248  0.27333375  0.09982185    -0.39700
N660        N  0.80056564  0.21506166  0.11898835    -0.37300
N661        N  0.69413763  0.25639381  0.11482832    -0.38400
N662        N  0.71714904  0.31146020  0.08830902    -0.40000
C663        C  0.74625484  0.10782991  0.28140904    -0.05000
C664        C  0.76895254  0.10400428  0.28242624     0.09200
C665        C  0.78218138  0.10841920  0.26410509    -0.02300
C666        C  0.77274043  0.11641679  0.24469219    -0.00600
C667        C  0.74995213  0.12027355  0.24355321    -0.04200
C668        C  0.73676192  0.11600132  0.26207137     0.02800
C669        C  0.77893484  0.09516127  0.30285147     0.09600
C670        C  0.80555449  0.10464779  0.26529746     0.35500
C671        C  0.71354420  0.12072772  0.26157674     0.39000
C672        C  0.77997142  0.07242251  0.30622563    -0.04600
C673        C  0.78855140  0.06404097  0.32587228     0.02600
C674        C  0.79676292  0.07839244  0.34201491    -0.04200
C675        C  0.79628704  0.10117801  0.33827800    -0.00400
C676        C  0.78717100  0.10951656  0.31885863    -0.03000
C677        C  0.77212910  0.05767567  0.28942176     0.36300
C678        C  0.80569219  0.11607971  0.35412756     0.39900
C679        C  0.78794565  0.04070157  0.32982207     0.39000
C680        C  0.78620035  0.13290070  0.31530028     0.35900
C681        C  0.73274897  0.10349745  0.30041661     0.36600
C682        C  0.78647808  0.11998165  0.22569849     0.39900
N683        N  0.78734330  0.02209176  0.33301021    -0.38200
N684        N  0.76597192  0.04593943  0.27594483    -0.39800
N685        N  0.81324554  0.12795842  0.36674594    -0.37500
N686        N  0.78539027  0.15155513  0.31245900    -0.39900
N687        N  0.82419829  0.10166835  0.26633876    -0.39700
N688        N  0.79746889  0.12280239  0.21056169    -0.37300
N689        N  0.69502239  0.12453456  0.26128422    -0.38400
N690        N  0.72207150  0.10001923  0.31563964    -0.40000
C691        C  0.74278114  0.58734442  0.10152430    -0.05000
C692        C  0.76500272  0.58437410  0.09618810     0.09200
C693        C  0.78000362  0.60153251  0.09947756    -0.02300
C694        C  0.77268273  0.62191604  0.10726610    -0.00600
C695        C  0.75033578  0.62508836  0.11225062    -0.04200
C696        C  0.73544763  0.60762676  0.10958367     0.02800
C697        C  0.77249288  0.56346335  0.08611376     0.09600
C698        C  0.80299452  0.59813521  0.09478557     0.35500
C699        C  0.71268328  0.61029740  0.11567324     0.39000
C700        C  0.77166511  0.56084601  0.06323739    -0.04600
C701        C  0.77894913  0.54127350  0.05353231     0.02600
C702        C  0.78717958  0.52421667  0.06668851    -0.04200
C703        C  0.78799207  0.52690318  0.08963770    -0.00400
C704        C  0.78061789  0.54646775  0.09930340    -0.03000
C705        C  0.76321857  0.57837433  0.04974479     0.36300
C706        C  0.79699861  0.50980342  0.10330873     0.39900
C707        C  0.77727386  0.53845471  0.03006979     0.39000
C708        C  0.78144238  0.54921345  0.12282458     0.35900
C709        C  0.72752496  0.56941889  0.09883233     0.36600
C710        C  0.78803867  0.63985751  0.10926282     0.39900
N711        N  0.77582210  0.53623954  0.01135136    -0.38200
N712        N  0.75644856  0.59243715  0.03911215    -0.39800
N713        N  0.80419913  0.49616428  0.11420934    -0.37500
N714        N  0.78208504  0.55142618  0.14158921    -0.39900
N715        N  0.82134327  0.59530638  0.09116914    -0.39700
N716        N  0.80028782  0.65418215  0.11074745    -0.37300
N717        N  0.69453396  0.61243243  0.12056784    -0.38400
N718        N  0.71538240  0.55508155  0.09674578    -0.40000
C719        C  0.55201064  0.76510192  0.07961151    -0.05000
C720        C  0.56743986  0.78067483  0.08668395     0.09200
C721        C  0.56246244  0.80309813  0.08548030    -0.02300
C722        C  0.54204976  0.80996895  0.07733591    -0.00600
C723        C  0.52653967  0.79439532  0.07014931    -0.04200
C724        C  0.53173503  0.77192616  0.07108914     0.02800
C725        C  0.58907146  0.77339456  0.09529686     0.09600
C726        C  0.57831825  0.81906769  0.09290517     0.35500
C727        C  0.51664017  0.75583057  0.06245237     0.39000
C728        C  0.60719900  0.77181772  0.08114623    -0.04600
C729        C  0.62747481  0.76434080  0.08910043     0.02600
C730        C  0.62971401  0.75835320  0.11129357    -0.04200
C731        C  0.61155960  0.76026094  0.12551253    -0.00400
C732        C  0.59131687  0.76776881  0.11750454    -0.03000
C733        C  0.60486947  0.77778744  0.05833939     0.36300
C734        C  0.61336895  0.75367858  0.14819874     0.39900
C735        C  0.64614152  0.76328581  0.07450616     0.39000
C736        C  0.57263409  0.76944343  0.13201963     0.35900
C737        C  0.55704276  0.74202365  0.08123556     0.36600
C738        C  0.53683855  0.83306518  0.07699873     0.39900
N739        N  0.66102151  0.76248017  0.06284575    -0.38200
N740        N  0.60294713  0.78257080  0.04015764    -0.39800
N741        N  0.61478028  0.74842458  0.16629934    -0.37500
N742        N  0.55769552  0.77075474  0.14355564    -0.39900
N743        N  0.59098507  0.83178226  0.09884343    -0.39700
N744        N  0.53269718  0.85149341  0.07672121    -0.37300
N745        N  0.50469757  0.74297344  0.05541790    -0.38400
N746        N  0.56107373  0.72362996  0.08269946    -0.40000
C747        C  0.78807365  0.76303466  0.26107999    -0.05000
C748        C  0.77372892  0.76862446  0.27821643     0.09200
C749        C  0.75098721  0.76630730  0.27542050    -0.02300
C750        C  0.74254632  0.75844302  0.25552219    -0.00600
C751        C  0.75685570  0.75288519  0.23820192    -0.04200
C752        C  0.77969856  0.75516709  0.24111594     0.02800
C753        C  0.78248342  0.77717656  0.29929055     0.09600
C754        C  0.73627354  0.77195888  0.29315441     0.35500
C755        C  0.79463554  0.75012569  0.22339967     0.39000
C756        C  0.78226205  0.79980537  0.30347594    -0.04600
C757        C  0.78941454  0.80786740  0.32380930     0.02600
C758        C  0.79698327  0.79328908  0.34003218    -0.04200
C759        C  0.79744268  0.77061912  0.33566322    -0.00400
C760        C  0.79028475  0.76261845  0.31530588    -0.03000
C761        C  0.77457411  0.81475011  0.28679083     0.36300
C762        C  0.80571254  0.75549925  0.35190415     0.39900
C763        C  0.78812272  0.83109341  0.32826832     0.39000
C764        C  0.79099398  0.73938822  0.31075156     0.35900
C765        C  0.81145861  0.76564811  0.26399120     0.36600
C766        C  0.71913193  0.75544380  0.25325645     0.39900
N767        N  0.78702371  0.84962446  0.33178542    -0.38200
N768        N  0.76843741  0.82659897  0.27342423    -0.39800
N769        N  0.81225669  0.74343785  0.36488378    -0.37500
N770        N  0.79168467  0.72087427  0.30705538    -0.39900
N771        N  0.72456361  0.77652448  0.30729278    -0.39700
N772        N  0.70044658  0.75310490  0.25148500    -0.37300
N773        N  0.80661805  0.74611253  0.20931807    -0.38400
N774        N  0.83010005  0.76774099  0.26639379    -0.40000
C775        C  0.06576447  0.56117058  0.08610647    -0.05000
C776        C  0.08824556  0.56425610  0.09001443     0.09200
C777        C  0.10300140  0.54701140  0.08620202    -0.02300
C778        C  0.09536418  0.52674842  0.07835934    -0.00600
C779        C  0.07276660  0.52346562  0.07455832    -0.04200
C780        C  0.05798624  0.54081734  0.07859320     0.02800
C781        C  0.09639770  0.58557767  0.09869416     0.09600
C782        C  0.12612191  0.55019817  0.09036376     0.35500
C783        C  0.03465401  0.53760464  0.07587749     0.39000
C784        C  0.09888979  0.58852661  0.12138579    -0.04600
C785        C  0.10701850  0.60841625  0.12968359     0.02600
C786        C  0.11275392  0.62557390  0.11527249    -0.04200
C787        C  0.11008726  0.62256344  0.09247802    -0.00400
C788        C  0.10188793  0.60264441  0.08426406    -0.03000
C789        C  0.09325729  0.57089173  0.13617032     0.36300
C790        C  0.11526504  0.64008720  0.07740481     0.39900
C791        C  0.11023924  0.61077084  0.15303800     0.39000
C792        C  0.09905909  0.59962420  0.06092864     0.35900
C793        C  0.05064428  0.57898651  0.09002319     0.36600
C794        C  0.11097664  0.50957937  0.07358347     0.39900
N795        N  0.11276167  0.61258562  0.17168565    -0.38200
N796        N  0.08877408  0.55676283  0.14788823    -0.39800
N797        N  0.11941270  0.65400629  0.06531301    -0.37500
N798        N  0.09673463  0.59716973  0.04232869    -0.39900
N799        N  0.14455235  0.55273899  0.09374465    -0.39700
N800        N  0.12346565  0.49590137  0.06981224    -0.37300
N801        N  0.01601796  0.53512781  0.07379543    -0.38400
N802        N  0.03865511  0.59326198  0.09312389    -0.40000
C803        C  0.32252970  0.75762385  0.08114308    -0.05000
C804        C  0.30641388  0.77119528  0.09044644     0.09200
C805        C  0.30984965  0.79392765  0.09162361    -0.02300
C806        C  0.32944061  0.80308333  0.08369232    -0.00600
C807        C  0.34572134  0.78950276  0.07452800    -0.04200
C808        C  0.34210203  0.76675017  0.07309258     0.02800
C809        C  0.28572068  0.76161991  0.09913655     0.09600
C810        C  0.29318299  0.80785433  0.10112246     0.35500
C811        C  0.35811190  0.75281539  0.06253803     0.39000
C812        C  0.28413259  0.75593102  0.12138995    -0.04600
C813        C  0.26419734  0.74815746  0.12995510     0.02600
C814        C  0.24573062  0.74601355  0.11625241    -0.04200
C815        C  0.24756569  0.75116121  0.09379911    -0.00400
C816        C  0.26752394  0.75894119  0.08529006    -0.03000
C817        C  0.30311514  0.75806020  0.13540888     0.36300
C818        C  0.22874456  0.74917952  0.07954370     0.39900
C819        C  0.26291785  0.74176959  0.15273217     0.39000
C820        C  0.26935781  0.76440940  0.06230606     0.35900
C821        C  0.31888934  0.73426716  0.07984080     0.36600
C822        C  0.33300517  0.82643316  0.08546150     0.39900
N823        N  0.26194977  0.73661820  0.17089342    -0.38200
N824        N  0.31832810  0.75974086  0.14649942    -0.39800
N825        N  0.21373898  0.74759698  0.06815824    -0.37500
N826        N  0.27088184  0.76873716  0.04396789    -0.39900
N827        N  0.27985525  0.81890921  0.10871639    -0.39700
N828        N  0.33581043  0.84506570  0.08685575    -0.37300
N829        N  0.37085105  0.74174796  0.05400448    -0.38400
N830        N  0.31597469  0.71562965  0.07881935    -0.40000
C831        C  0.12361351  0.76470811  0.28054445    -0.05000
C832        C  0.10133598  0.76994750  0.28314367     0.09200
C833        C  0.08675703  0.76676207  0.26560097    -0.02300
C834        C  0.09443866  0.75854977  0.24544475    -0.00600
C835        C  0.11680592  0.75325214  0.24274110    -0.04200
C836        C  0.13130256  0.75616433  0.26053724     0.02800
C837        C  0.09313788  0.77867265  0.30449445     0.09600
C838        C  0.06380809  0.77203749  0.26835331     0.35500
C839        C  0.15396056  0.74946194  0.25869863     0.39000
C840        C  0.09259609  0.80137612  0.30827839    -0.04600
C841        C  0.08442149  0.80963267  0.32820348     0.02600
C842        C  0.07674115  0.79520220  0.34453128    -0.04200
C843        C  0.07765643  0.77242109  0.34083510    -0.00400
C844        C  0.08588267  0.76421416  0.32090074    -0.03000
C845        C  0.10076846  0.81621291  0.29172117     0.36300
C846        C  0.06955323  0.75738030  0.35725026     0.39900
C847        C  0.08465281  0.83297904  0.33217373     0.39000
C848        C  0.08698646  0.74085025  0.31721999     0.35900
C849        C  0.13859575  0.76809694  0.29857980     0.36600
C850        C  0.07933467  0.75612183  0.22735892     0.39900
N851        N  0.08487453  0.85159339  0.33540166    -0.38200
N852        N  0.10738051  0.82803790  0.27854126    -0.39800
N853        N  0.06308773  0.74535374  0.37032344    -0.37500
N854        N  0.08797624  0.72221802  0.31426282    -0.39900
N855        N  0.04550941  0.77624545  0.27061907    -0.39700
N856        N  0.06723687  0.75418383  0.21296635    -0.37300
N857        N  0.17201736  0.74401193  0.25732486    -0.38400
N858        N  0.15049605  0.77088829  0.31299447    -0.40000
C859        C  0.10864066  0.54852414  0.79219776    -0.05000
C860        C  0.09429637  0.56207871  0.78032071     0.09200
C861        C  0.07261220  0.55524644  0.77651781    -0.02300
C862        C  0.06527595  0.53495867  0.78454801    -0.00600
C863        C  0.07958306  0.52138491  0.79651874    -0.04200
C864        C  0.10131430  0.52822226  0.80028745     0.02800
C865        C  0.10191668  0.58372507  0.77193524     0.09600
C866        C  0.05781168  0.56922897  0.76443823     0.35500
C867        C  0.11590390  0.51475186  0.81317640     0.39000
C868        C  0.10905305  0.58582806  0.75012092    -0.04600
C869        C  0.11571644  0.60634862  0.74204003     0.02600
C870        C  0.11506972  0.62496779  0.75569319    -0.04200
C871        C  0.10810767  0.62276639  0.77761634    -0.00400
C872        C  0.10161258  0.60219105  0.78570765    -0.03000
C873        C  0.10961124  0.56677805  0.73604910     0.36300
C874        C  0.10697812  0.64177684  0.79170313     0.39900
C875        C  0.12397569  0.60811352  0.71989167     0.39000
C876        C  0.09443801  0.59996033  0.80818993     0.35900
C877        C  0.13087772  0.55563952  0.79625489     0.36600
C878        C  0.04310265  0.52785591  0.78006891     0.39900
N879        N  0.13066421  0.60950068  0.70225514    -0.38200
N880        N  0.11000877  0.55155118  0.72485884    -0.39800
N881        N  0.10601075  0.65693047  0.80295973    -0.37500
N882        N  0.08876095  0.59806676  0.82612892    -0.39900
N883        N  0.04601822  0.58040518  0.75480807    -0.39700
N884        N  0.02542710  0.52215233  0.77650492    -0.37300
N885        N  0.12751664  0.50404320  0.82353421    -0.38400
N886        N  0.14859345  0.56139534  0.79951727    -0.40000
C887        C  0.07891504  0.76521534  0.54871351    -0.05000
C888        C  0.08723612  0.77880542  0.56534052     0.09200
C889        C  0.08865143  0.80152712  0.56189078    -0.02300
C890        C  0.08159364  0.81066928  0.54196000    -0.00600
C891        C  0.07381077  0.79701675  0.52502603    -0.04200
C892        C  0.07241784  0.77423695  0.52853812     0.02800
C893        C  0.09487103  0.76915532  0.58644771     0.09600
C894        C  0.09771525  0.81543315  0.57879698     0.35500
C895        C  0.06360134  0.76010921  0.51168207     0.39000
C896        C  0.11694601  0.76313838  0.58896702    -0.04600
C897        C  0.12447228  0.75493137  0.60912696     0.02600
C898        C  0.10978768  0.75212594  0.62681953    -0.04200
C899        C  0.08749236  0.75757800  0.62399730    -0.00400
C900        C  0.08014261  0.76629210  0.60394971    -0.03000
C901        C  0.13186219  0.76526536  0.57064677     0.36300
C902        C  0.07218714  0.75494135  0.64190728     0.39900
C903        C  0.14729896  0.74897458  0.61139971     0.39000
C904        C  0.05744710  0.77257197  0.60131246     0.35900
C905        C  0.07701949  0.74191957  0.55245740     0.36600
C906        C  0.08273085  0.83410913  0.53879688     0.39900
N907        N  0.16554715  0.74435034  0.61317458    -0.38200
N908        N  0.14366230  0.76686715  0.55594692    -0.39800
N909        N  0.05991165  0.75281027  0.65614539    -0.37500
N910        N  0.03936702  0.77765113  0.59913407    -0.39900
N911        N  0.10509270  0.82647135  0.59225179    -0.39700
N912        N  0.08349319  0.85282589  0.53635382    -0.37300
N913        N  0.05655389  0.74885209  0.49822953    -0.38400
N914        N  0.07545120  0.72334619  0.55551373    -0.40000
C915        C  0.27861888  0.74701015  0.75856752    -0.05000
C916        C  0.28106730  0.76933919  0.76355726     0.09200
C917        C  0.26326686  0.78368374  0.76087400    -0.02300
C918        C  0.24288366  0.77563480  0.75373026    -0.00600
C919        C  0.24022789  0.75314934  0.74910981    -0.04200
C920        C  0.25827325  0.73889428  0.75142820     0.02800
C921        C  0.30217131  0.77751130  0.77270997     0.09600
C922        C  0.26590240  0.80669630  0.76581392     0.35500
C923        C  0.25613257  0.71592223  0.74608983     0.39000
C924        C  0.31790024  0.78723548  0.75895584    -0.04600
C925        C  0.33776824  0.79493231  0.76774906     0.02600
C926        C  0.34221169  0.79241620  0.79028012    -0.04200
C927        C  0.32660361  0.78223442  0.80391450    -0.00400
C928        C  0.30651984  0.77511389  0.79520387    -0.03000
C929        C  0.31365020  0.78913860  0.73573146     0.36300
C930        C  0.33155553  0.77821903  0.82672991     0.39900
C931        C  0.35332869  0.80600368  0.75369898     0.39000
C932        C  0.29026551  0.76521566  0.80934990     0.35900
C933        C  0.29715407  0.73242472  0.76082078     0.36600
C934        C  0.22441727  0.79038632  0.75213067     0.39900
N935        N  0.36570731  0.81490787  0.74250657    -0.38200
N936        N  0.31027623  0.79056297  0.71718914    -0.39800
N937        N  0.33557267  0.77484071  0.84488474    -0.37500
N938        N  0.27723096  0.75734322  0.82056924    -0.39900
N939        N  0.26805552  0.82505828  0.76971006    -0.39700
N940        N  0.20967821  0.80215323  0.75092184    -0.37300
N941        N  0.25450437  0.69756989  0.74189929    -0.38400
N942        N  0.31201652  0.72089682  0.76263513    -0.40000
C943        C  0.08574028  0.06328337  0.56134207    -0.05000
C944        C  0.08813881  0.08572856  0.56580299     0.09200
C945        C  0.08142143  0.10127886  0.55025234    -0.02300
C946        C  0.07218382  0.09446250  0.53031956    -0.00600
C947        C  0.06978996  0.07195547  0.52568820    -0.04200
C948        C  0.07644576  0.05636667  0.54141960     0.02800
C949        C  0.09682813  0.09314357  0.58735358     0.09600
C950        C  0.08386998  0.12436941  0.55491686     0.35500
C951        C  0.07405028  0.03319276  0.53713734     0.39000
C952        C  0.11945119  0.09622442  0.59032240    -0.04600
C953        C  0.12750228  0.10399206  0.61046996     0.02600
C954        C  0.11289877  0.10879203  0.62778894    -0.04200
C955        C  0.09017875  0.10573354  0.62465894    -0.00400
C956        C  0.08222792  0.09782953  0.60454404    -0.03000
C957        C  0.13437057  0.09180173  0.57242631     0.36300
C958        C  0.07488803  0.11041362  0.64216710     0.39900
C959        C  0.15073500  0.10802281  0.61291503     0.39000
C960        C  0.05894661  0.09460352  0.60137060     0.35900
C961        C  0.09292571  0.04734185  0.57730606     0.36600
C962        C  0.06418337  0.11072165  0.51507176     0.39900
N963        N  0.16926943  0.11127388  0.61482589    -0.38200
N964        N  0.14624693  0.08831959  0.55811775    -0.39800
N965        N  0.06258408  0.11421963  0.65602630    -0.37500
N966        N  0.04040809  0.09199090  0.59869838    -0.39900
N967        N  0.08583719  0.14278379  0.55864852    -0.39700
N968        N  0.05773060  0.12367057  0.50292989    -0.37300
N969        N  0.07201827  0.01468710  0.53389357    -0.38400
N970        N  0.09874551  0.03465378  0.59002867    -0.40000
C971        C  0.30546017  0.08428192  0.80265225    -0.05000
C972        C  0.30055587  0.08583488  0.78021829     0.09200
C973        C  0.31614511  0.07924850  0.76454977    -0.02300
C974        C  0.33642539  0.07069541  0.77129278    -0.00600
C975        C  0.34144622  0.06925519  0.79378685    -0.04200
C976        C  0.32598028  0.07639277  0.80943080     0.02800
C977        C  0.27887868  0.09436016  0.77299355     0.09600
C978        C  0.31125387  0.08132666  0.74145859     0.35500
C979        C  0.33145471  0.07650982  0.83248968     0.39000
C980        C  0.27518066  0.11703276  0.77189790    -0.04600
C981        C  0.25532823  0.12509443  0.76344492     0.02600
C982        C  0.23847273  0.11045631  0.75727724    -0.04200
C983        C  0.24187309  0.08771221  0.75961733    -0.00400
C984        C  0.26218874  0.07972389  0.76691542    -0.03000
C985        C  0.29183334  0.13203466  0.77962595     0.36300
C986        C  0.22423246  0.07245559  0.75541130     0.39900
C987        C  0.25282186  0.14841095  0.76021484     0.39000
C988        C  0.26594731  0.05638611  0.76834036     0.35900
C989        C  0.28931892  0.09078945  0.81875415     0.36600
C990        C  0.35178773  0.06275894  0.75505772     0.39900
N991        N  0.25101127  0.16702667  0.75756763    -0.38200
N992        N  0.30502349  0.14391796  0.78612691    -0.39800
N993        N  0.21013127  0.06026914  0.75222325    -0.37500
N994        N  0.26903457  0.03778332  0.76940268    -0.39900
N995        N  0.30732914  0.08305249  0.72305178    -0.39700
N996        N  0.36398420  0.05637461  0.74207979    -0.37300
N997        N  0.33589928  0.07671052  0.85086086    -0.38400
N998        N  0.27643117  0.09593824  0.83160804    -0.40000
C999        C  0.09651558  0.26054770  0.78069149    -0.05000
C1000       C  0.09909968  0.27958871  0.76801897     0.09200
C1001       C  0.10910814  0.27831562  0.74728855    -0.02300
C1002       C  0.11637337  0.25801322  0.73917424    -0.00600
C1003       C  0.11411153  0.23896637  0.75201460    -0.04200
C1004       C  0.10416524  0.24032299  0.77281442     0.02800
C1005       C  0.09122106  0.30102484  0.77661049     0.09600
C1006       C  0.11218431  0.29799806  0.73448976     0.35500
C1007       C  0.10122771  0.22080083  0.78589240     0.39000
C1008       C  0.10439225  0.31320096  0.79107765    -0.04600
C1009       C  0.09677053  0.33318909  0.79958960     0.02600
C1010       C  0.07593028  0.34108480  0.79366557    -0.04200
C1011       C  0.06267369  0.32878972  0.77933283    -0.00400
C1012       C  0.07034897  0.30883722  0.77076375    -0.03000
C1013       C  0.12570953  0.30498830  0.79733877     0.36300
C1014       C  0.04124772  0.33680070  0.77317547     0.39900
C1015       C  0.11004554  0.34525845  0.81506407     0.39000
C1016       C  0.05676065  0.29620741  0.75602659     0.35900
C1017       C  0.08582115  0.26182706  0.80181261     0.36600
C1018       C  0.12667364  0.25685842  0.71784803     0.39900
N1019       N  0.12056079  0.35485015  0.82750412    -0.38200
N1020       N  0.14268276  0.29835571  0.80234957    -0.39800
N1021       N  0.02414054  0.34317274  0.76827674    -0.37500
N1022       N  0.04598163  0.28608294  0.74425218    -0.39900
N1023       N  0.11469202  0.31373762  0.72434623    -0.39700
N1024       N  0.13483526  0.25594690  0.70080656    -0.37300
N1025       N  0.09887713  0.20522579  0.79632296    -0.38400
N1026       N  0.07724879  0.26292818  0.81863677    -0.40000
C1027       C  0.58106331  0.11027670  0.74273523    -0.05000
C1028       C  0.58065782  0.10034117  0.76350152     0.09200
C1029       C  0.60002815  0.09876632  0.77583825    -0.02300
C1030       C  0.61978390  0.10716175  0.76748524    -0.00600
C1031       C  0.62028701  0.11705916  0.74662901    -0.04200
C1032       C  0.60083718  0.11856995  0.73426741     0.02800
C1033       C  0.55968899  0.09190324  0.77268801     0.09600
C1034       C  0.59952927  0.08854504  0.79720489     0.35500
C1035       C  0.60094537  0.12944245  0.71322105     0.39000
C1036       C  0.55325924  0.07014542  0.76874167    -0.04600
C1037       C  0.53376555  0.06203073  0.77796220     0.02600
C1038       C  0.52067963  0.07564215  0.79121631    -0.04200
C1039       C  0.52694146  0.09752961  0.79485120    -0.00400
C1040       C  0.54649100  0.10559654  0.78570627    -0.03000
C1041       C  0.56680991  0.05611371  0.75528915     0.36300
C1042       C  0.51350371  0.11162583  0.80835766     0.39900
C1043       C  0.52683811  0.03985840  0.77332745     0.39000
C1044       C  0.55326603  0.12790287  0.78989273     0.35900
C1045       C  0.56101077  0.11225479  0.73027924     0.36600
C1046       C  0.63965979  0.10520343  0.78023125     0.39900
N1047       N  0.52120023  0.02221546  0.76958156    -0.38200
N1048       N  0.57764399  0.04491673  0.74457456    -0.39800
N1049       N  0.50279045  0.12289942  0.81911496    -0.37500
N1050       N  0.55879339  0.14566058  0.79323449    -0.39900
N1051       N  0.59905582  0.08038849  0.81424458    -0.39700
N1052       N  0.65549321  0.10367217  0.79043860    -0.37300
N1053       N  0.60101619  0.13816754  0.69645749    -0.38400
N1054       N  0.54498472  0.11387753  0.72039284    -0.40000
C1055       C  0.76567477  0.08938950  0.60077601    -0.05000
C1056       C  0.76981721  0.10367011  0.58318971     0.09200
C1057       C  0.76529980  0.12611974  0.58537690    -0.02300
C1058       C  0.75632914  0.13426947  0.60495944    -0.00600
C1059       C  0.75162073  0.11992775  0.62244577    -0.04200
C1060       C  0.75647266  0.09745354  0.62032182     0.02800
C1061       C  0.77843646  0.09503794  0.56204508     0.09600
C1062       C  0.76968869  0.14077106  0.56728423     0.35500
C1063       C  0.75256811  0.08269121  0.63843479     0.39000
C1064       C  0.76384009  0.08687362  0.54620643    -0.04600
C1065       C  0.77182865  0.07906141  0.52605534     0.02600
C1066       C  0.79451770  0.07938814  0.52164567    -0.04200
C1067       C  0.80905408  0.08805355  0.53736208    -0.00400
C1068       C  0.80102914  0.09573553  0.55755364    -0.03000
C1069       C  0.74055179  0.08664785  0.55068600     0.36300
C1070       C  0.83216495  0.08996322  0.53240294     0.39900
C1071       C  0.75668013  0.07029184  0.51008463     0.39000
C1072       C  0.81595512  0.10455976  0.57369637     0.35900
C1073       C  0.77105792  0.06642154  0.59874799     0.36600
C1074       C  0.75129590  0.15733631  0.60676059     0.39900
N1075       N  0.74455576  0.06335934  0.49734478    -0.38200
N1076       N  0.72198730  0.08652497  0.55431809    -0.39800
N1077       N  0.85057465  0.09163612  0.52837730    -0.37500
N1078       N  0.82782265  0.11164106  0.58659241    -0.39900
N1079       N  0.77323370  0.15238681  0.55280689    -0.39700
N1080       N  0.74733456  0.17575163  0.60818435    -0.37300
N1081       N  0.74947149  0.07090902  0.65288403    -0.38400
N1082       N  0.77543649  0.04811537  0.59714476    -0.40000
C1083       C  0.75441046  0.28090244  0.75027484    -0.05000
C1084       C  0.76220624  0.28222109  0.77191038     0.09200
C1085       C  0.76256109  0.26333901  0.78509650    -0.02300
C1086       C  0.75565422  0.24310030  0.77652593    -0.00600
C1087       C  0.74807313  0.24169251  0.75477144    -0.04200
C1088       C  0.74729043  0.26073103  0.74173978     0.02800
C1089       C  0.77087703  0.30335428  0.78059096     0.09600
C1090       C  0.77011836  0.26480872  0.80750093     0.35500
C1091       C  0.73862579  0.25972481  0.71970927     0.39000
C1092       C  0.75647626  0.31954897  0.78839644    -0.04600
C1093       C  0.76478903  0.33933447  0.79682122     0.02600
C1094       C  0.78762938  0.34299593  0.79760927    -0.04200
C1095       C  0.80199075  0.32678901  0.78951207    -0.00400
C1096       C  0.79361588  0.30709073  0.78100927    -0.03000
C1097       C  0.73308235  0.31573635  0.78785610     0.36300
C1098       C  0.82538516  0.33062000  0.78912223     0.39900
C1099       C  0.74977522  0.35563970  0.80520404     0.39000
C1100       C  0.80837336  0.29066901  0.77238302     0.35900
C1101       C  0.75378402  0.30035114  0.73679218     0.36600
C1102       C  0.75713498  0.22359479  0.78986241     0.39900
N1103       N  0.73777111  0.36865339  0.81183590    -0.38200
N1104       N  0.71442120  0.31269162  0.78736621    -0.39800
N1105       N  0.84405668  0.33362948  0.78876270    -0.37500
N1106       N  0.82006328  0.27752252  0.76546533    -0.39900
N1107       N  0.77613080  0.26606764  0.82537485    -0.39700
N1108       N  0.75842355  0.20803229  0.80048948    -0.37300
N1109       N  0.73168269  0.25889903  0.70214931    -0.38400
N1110       N  0.75322468  0.31589032  0.72607010    -0.40000
C1111       C  0.58331238  0.75765617  0.74519976    -0.05000
C1112       C  0.58237658  0.76469180  0.76710946     0.09200
C1113       C  0.60105272  0.76299509  0.78045197    -0.02300
C1114       C  0.62070009  0.75445637  0.77188010    -0.00600
C1115       C  0.62181432  0.74760049  0.74980386    -0.04200
C1116       C  0.60295040  0.74923664  0.73651633     0.02800
C1117       C  0.56177305  0.77447784  0.77591161     0.09600
C1118       C  0.60007122  0.77040622  0.80294145     0.35500
C1119       C  0.60350705  0.74193470  0.71397779     0.39000
C1120       C  0.54611361  0.76119539  0.78636616    -0.04600
C1121       C  0.52627810  0.77029441  0.79379730     0.02600
C1122       C  0.52205203  0.79281066  0.79093025    -0.04200
C1123       C  0.53794213  0.80615469  0.78077293    -0.00400
C1124       C  0.55772816  0.79699110  0.77329023    -0.03000
C1125       C  0.55049290  0.73815146  0.78951867     0.36300
C1126       C  0.53364754  0.82917301  0.77727217     0.39900
C1127       C  0.51045967  0.75653793  0.80487570     0.39000
C1128       C  0.57395178  0.81067113  0.76273125     0.35900
C1129       C  0.56395928  0.75915493  0.73160586     0.36600
C1130       C  0.64000378  0.75369910  0.78558749     0.39900
N1131       N  0.49781117  0.74559200  0.81370222    -0.38200
N1132       N  0.55400351  0.71977680  0.79211102    -0.39800
N1133       N  0.53022227  0.84753048  0.77443885    -0.37500
N1134       N  0.58693798  0.82153904  0.75431310    -0.39900
N1135       N  0.59923432  0.77636493  0.82086601    -0.39700
N1136       N  0.65540052  0.75315615  0.79653735    -0.37300
N1137       N  0.60387682  0.73623046  0.69595332    -0.38400
N1138       N  0.54846641  0.76037211  0.72085018    -0.40000
C1139       C  0.75723559  0.58361282  0.74848242    -0.05000
C1140       C  0.76529910  0.58302528  0.77004923     0.09200
C1141       C  0.76501823  0.60214511  0.78288170    -0.02300
C1142       C  0.75727730  0.62194282  0.77398238    -0.00600
C1143       C  0.74969931  0.62271817  0.75215724    -0.04200
C1144       C  0.74939787  0.60334701  0.73957053     0.02800
C1145       C  0.77484843  0.56234921  0.77889101     0.09600
C1146       C  0.77289115  0.60141456  0.80520821     0.35500
C1147       C  0.74027908  0.60347082  0.71771175     0.39000
C1148       C  0.79684933  0.55708489  0.77442407    -0.04600
C1149       C  0.80575300  0.53720395  0.78187592     0.02600
C1150       C  0.79266666  0.52241844  0.79385046    -0.04200
C1151       C  0.77064333  0.52778307  0.79841624    -0.00400
C1152       C  0.76182967  0.54776423  0.79109071    -0.03000
C1153       C  0.81026077  0.57218017  0.76201578     0.36300
C1154       C  0.75712235  0.51293589  0.81101327     0.39900
C1155       C  0.82814447  0.53162089  0.77644694     0.39000
C1156       C  0.73938097  0.55340727  0.79617757     0.35900
C1157       C  0.75698318  0.56378714  0.73551164     0.36600
C1158       C  0.75773720  0.64163698  0.78713686     0.39900
N1159       N  0.84598891  0.52717350  0.77202128    -0.38200
N1160       N  0.82086625  0.58429957  0.75211107    -0.39800
N1161       N  0.74635468  0.50103028  0.82100810    -0.37500
N1162       N  0.72149963  0.55793614  0.80035768    -0.39900
N1163       N  0.77911788  0.60076801  0.82304006    -0.39700
N1164       N  0.75809959  0.65734010  0.79765051    -0.37300
N1165       N  0.73290938  0.60349885  0.70030863    -0.38400
N1166       N  0.75681405  0.54791655  0.72525085    -0.40000
C1167       C  0.74026730  0.75458315  0.58019956    -0.05000
C1168       C  0.76183994  0.76257058  0.57870165     0.09200
C1169       C  0.77551182  0.76205735  0.59722490    -0.02300
C1170       C  0.76779090  0.75329204  0.61709945    -0.00600
C1171       C  0.74605000  0.74561924  0.61878950    -0.04200
C1172       C  0.73226443  0.74645707  0.60025695     0.02800
C1173       C  0.77013335  0.77204404  0.55773480     0.09600
C1174       C  0.79742116  0.77102328  0.59586456     0.35500
C1175       C  0.70995541  0.73855708  0.60164843     0.39000
C1176       C  0.76570102  0.79402682  0.55251992    -0.04600
C1177       C  0.77440120  0.80335634  0.53332545     0.02600
C1178       C  0.78750168  0.79069640  0.51914347    -0.04200
C1179       C  0.79160422  0.76855104  0.52418587    -0.00400
C1180       C  0.78302028  0.75929878  0.54348216    -0.03000
C1181       C  0.75224286  0.80705052  0.56704112     0.36300
C1182       C  0.80520282  0.75542606  0.50986765     0.39900
C1183       C  0.76936943  0.82583881  0.52789088     0.39000
C1184       C  0.78760826  0.73670495  0.54884173     0.35900
C1185       C  0.72638098  0.75464883  0.56101019     0.36600
C1186       C  0.78207619  0.75283394  0.63598011     0.39900
N1187       N  0.76532209  0.84376259  0.52352764    -0.38200
N1188       N  0.74145362  0.81736754  0.57864849    -0.39800
N1189       N  0.81604105  0.74496020  0.49843477    -0.37500
N1190       N  0.79131475  0.71869607  0.55315619    -0.39900
N1191       N  0.81483131  0.77831955  0.59468493    -0.39700
N1192       N  0.79353857  0.75243871  0.65099892    -0.37300
N1193       N  0.69212295  0.73234350  0.60275831    -0.38400
N1194       N  0.71535829  0.75464991  0.54565930    -0.40000
loop_ 
_geom_bond_atom_site_label_1 
_geom_bond_atom_site_label_2 
_geom_bond_distance 
_geom_bond_site_symmetry_2 
_ccdc_geom_bond_type 
N1            N2   1.321       .  A
N1            C5   1.346       .  A
N1           Cu9   2.074       .  S
N2            C3   1.346       .  A
N2           Cu8   2.078       .  S
C3            C4   1.386       .  A
C3            H6   1.082       .  S
C4            C5   1.386       .  A
C4         C1115   1.492       .  S
C5            H7   1.082       .  S
Cu8          N11   2.079       .  S
Cu9          N19   2.074       .  S
Cu10         N12   2.087       .  S
Cu10         N18   2.087       .  S
N11          N12   1.323       .  A
N11          C15   1.346       .  A
N12          C13   1.347       .  A
C13          C14   1.385       .  A
C13          H16   1.082       .  S
C14          C15   1.384       .  A
C14        C1171   1.489       .  S
C15          H17   1.082       .  S
N18          N19   1.323       .  A
N18          C22   1.348       .  A
N19          C20   1.345       .  A
C20          C21   1.382       .  A
C20          H23   1.082       .  S
C21          C22   1.387       .  A
C21        C1143   1.490       .  S
C22          H24   1.082       .  S
N25          N26   1.322       .  A
N25          C29   1.344       .  A
N25         Cu33   2.073       .  S
N26          C27   1.345       .  A
N26         Cu32   2.074       .  S
C27          C28   1.384       .  A
C27          H30   1.082       .  S
C28          C29   1.383       .  A
C28        C1059   1.486       .  S
C29          H31   1.082       .  S
Cu32         N35   2.074       .  S
Cu33         N43   2.073       .  S
Cu34         N36   2.072       .  S
Cu34         N42   2.071       .  S
N35          N36   1.323       .  A
N35          C39   1.345       .  A
N36          C37   1.344       .  A
C37          C38   1.382       .  A
C37          H40   1.082       .  S
C38          C39   1.383       .  A
C38        C1031   1.484       .  S
C39          H41   1.082       .  S
N42          N43   1.322       .  A
N42          C46   1.345       .  A
N43          C44   1.345       .  A
C44          C45   1.384       .  A
C44          H47   1.082       .  S
C45          C46   1.383       .  A
C45        C1087   1.486       .  S
C46          H48   1.082       .  S
N49          N50   1.322       .  A
N49          C53   1.345       .  A
N49         Cu57   2.073       .  S
N50          C51   1.345       .  A
N50         Cu56   2.072       .  S
C51          C52   1.383       .  A
C51          H54   1.082       .  S
C52          C53   1.383       .  A
C52        C1003   1.484       .  S
C53          H55   1.082       .  S
Cu56         N59   2.072       .  S
Cu57         N67   2.073       .  S
Cu58         N60   2.078       .  S
Cu58         N66   2.077       .  S
N59          N60   1.321       .  A
N59          C63   1.345       .  A
N60          C61   1.345       .  A
C61          C62   1.386       .  A
C61          H64   1.080       .  S
C62          C63   1.385       .  A
C62         C982   1.491       .  S
C63          H65   1.081       .  S
N66          N67   1.322       .  A
N66          C70   1.346       .  A
N67          C68   1.344       .  A
C68          C69   1.384       .  A
C68          H71   1.082       .  S
C69          C70   1.386       .  A
C69         C954   1.489       .  S
C70          H72   1.082       .  S
N73          N74   1.324       .  A
N73          C77   1.347       .  A
N73         Cu81   2.088       .  S
N74          C75   1.345       .  A
N74         Cu80   2.075       .  S
C75          C76   1.382       .  A
C75          H78   1.082       .  S
C76          C77   1.385       .  A
C76         C870   1.487       .  S
C77          H79   1.082       .  S
Cu80         N83   2.074       .  S
Cu81         N91   2.087       .  S
Cu82         N84   2.072       .  S
Cu82         N90   2.072       .  S
N83          N84   1.322       .  A
N83          C87   1.345       .  A
N84          C85   1.345       .  A
C85          C86   1.384       .  A
C85          H88   1.082       .  S
C86          C87   1.385       .  A
C86         C919   1.488       .  S
C87          H89   1.082       .  S
N90          N91   1.322       .  A
N90          C94   1.344       .  A
N91          C92   1.348       .  A
C92          C93   1.388       .  A
C92          H95   1.082       .  S
C93          C94   1.383       .  A
C93         C898   1.492       .  S
C94          H96   1.082       .  S
N97          N98   1.323       .  A
N97         C101   1.344       .  A
N97        Cu105   2.068       .  S
N98          C99   1.346       .  A
N98        Cu104   2.081       .  S
C99         C100   1.385       .  A
C99         H102   1.082       .  S
C100        C101   1.382       .  A
C100        C814   1.485       .  S
C101        H103   1.082       .  S
Cu104       N107   2.082       .  S
Cu105       N115   2.068       .  S
Cu106       N108   2.082       .  S
Cu106       N114   2.081       .  S
N107        N108   1.323       .  A
N107        C111   1.346       .  A
N108        C109   1.346       .  A
C109        C110   1.386       .  A
C109        H112   1.082       .  S
C110        C111   1.386       .  A
C110        C835   1.493       .  S
C111        H113   1.082       .  S
N114        N115   1.321       .  A
N114        C118   1.346       .  A
N115        C116   1.345       .  A
C116        C117   1.384       .  A
C116        H119   1.082       .  S
C117        C118   1.387       .  A
C117        C786   1.491       .  S
C118        H120   1.082       .  S
N121        N122   1.322       .  A
N121        C125   1.345       .  A
N121       Cu129   2.076       .  S
N122        C123   1.344       .  A
N122       Cu128   2.067       .  S
C123        C124   1.382       .  A
C123        H126   1.082       .  S
C124        C125   1.384       .  A
C124        C695   1.485       .  S
C125        H127   1.082       .  S
Cu128       N131   2.067       .  S
Cu129       N139   2.075       .  S
Cu130       N132   2.071       .  S
Cu130       N138   2.071       .  S
N131        N132   1.321       .  A
N131        C135   1.344       .  A
N132        C133   1.343       .  A
C133        C134   1.385       .  A
C133        H136   1.082       .  S
C134        C135   1.384       .  A
C134        C751   1.487       .  S
C135        H137   1.082       .  S
N138        N139   1.322       .  A
N138        C142   1.345       .  A
N139        C140   1.345       .  A
C140        C141   1.384       .  A
C140        H143   1.082       .  S
C141        C142   1.384       .  A
C141        C730   1.486       .  S
C142        H144   1.082       .  S
N145        N146   1.322       .  A
N145        C149   1.345       .  A
N145       Cu153   2.071       .  S
N146        C147   1.346       .  A
N146       Cu152   2.080       .  S
C147        C148   1.387       .  A
C147        H150   1.082       .  S
C148        C149   1.384       .  A
C148        C639   1.490       .  S
C149        H151   1.082       .  S
Cu152       N155   2.081       .  S
Cu153       N163   2.071       .  S
Cu154       N156   2.083       .  S
Cu154       N162   2.083       .  S
N155        N156   1.323       .  A
N155        C159   1.346       .  A
N156        C157   1.347       .  A
C157        C158   1.385       .  A
C157        H160   1.082       .  S
C158        C159   1.385       .  A
C158        C618   1.491       .  S
C159        H161   1.082       .  S
N162        N163   1.322       .  A
N162        C166   1.347       .  A
N163        C164   1.344       .  A
C164        C165   1.383       .  A
C164        H167   1.082       .  S
C165        C166   1.386       .  A
C165        C667   1.489       .  S
C166        H168   1.082       .  S
N169        N170   1.322       .  A
N169        C173   1.345       .  A
N169       Cu177   2.072       .  S
N170        C171   1.346       .  A
N170       Cu176   2.078       .  S
C171        C172   1.385       .  A
C171        H174   1.082       .  S
C172        C173   1.383       .  A
C172       C1150   1.487       .  S
C173        H175   1.082       .  S
Cu176       N179   2.078       .  S
Cu177       N187   2.071       .  S
Cu178       N180   2.081       .  S
Cu178       N186   2.081       .  S
N179        N180   1.323       .  A
N179        C183   1.346       .  A
N180        C181   1.346       .  A
C181        C182   1.384       .  A
C181        H184   1.082       .  S
C182        C183   1.383       .  A
C182        C275   1.471       .  S
C183        H185   1.082       .  S
N186        N187   1.322       .  A
N186        C190   1.346       .  A
N187        C188   1.345       .  A
C188        C189   1.384       .  A
C188        H191   1.082       .  S
C189        C190   1.386       .  A
C189       C1094   1.490       .  S
C190        H192   1.082       .  S
N193        N194   1.323       .  A
N193        C197   1.346       .  A
N193       Cu201   2.080       .  S
N194        C195   1.345       .  A
N194       Cu200   2.072       .  S
C195        C196   1.381       .  A
C195        H198   1.082       .  S
C196        C197   1.382       .  A
C196       C1010   1.482       .  S
C197        H199   1.082       .  S
Cu200       N203   2.072       .  S
Cu201       N211   2.080       .  S
Cu202       N204   2.071       .  S
Cu202       N210   2.071       .  S
N203        N204   1.322       .  A
N203        C207   1.345   1_455  A
N204        C205   1.345   1_455  A
C205        C206   1.383       .  A
C205        H208   1.082       .  S
C206        C207   1.383       .  A
C206        C278   1.468       .  S
C207        H209   1.082       .  S
N210        N211   1.323       .  A
N210        C214   1.344       .  A
N211        C212   1.347       .  A
C212        C213   1.384       .  A
C212        H215   1.082       .  S
C213        C214   1.382       .  A
C213        C863   1.485       .  S
C214        H216   1.082       .  S
N217        N218   1.321       .  A
N217        C221   1.346       .  A
N217       Cu225   2.072       .  S
N218        C219   1.344       .  A
N218       Cu224   2.076       .  S
C219        C220   1.386       .  A
C219        H222   1.082       .  S
C220        C221   1.386       .  A
C220        C646   1.492       .  S
C221        H223   1.082       .  S
Cu224       N227   2.076       .  S
Cu225       N235   2.072       .  S
Cu226       N228   2.082       .  S
Cu226       N234   2.082       .  S
N227        N228   1.323       .  A
N227        C231   1.346   1_554  A
N228        C229   1.346   1_554  A
C229        C230   1.384       .  A
C229        H232   1.082       .  S
C230        C231   1.383       .  A
C230        C277   1.472       .  S
C231        H233   1.082       .  S
N234        N235   1.323       .  A
N234        C238   1.347       .  A
N235        C236   1.344       .  A
C236        C237   1.382       .  A
C236        H239   1.082       .  S
C237        C238   1.385       .  A
C237        C702   1.486       .  S
C238        H240   1.082       .  S
N241        N242   1.322       .  A
N241        C245   1.345       .  A
N241       Cu249   2.080       .  S
N242        C243   1.344       .  A
N242       Cu248   2.070       .  S
C243        C244   1.384       .  A
C243        H246   1.082       .  S
C244        C245   1.387       .  A
C244        C779   1.492       .  S
C245        H247   1.082       .  S
Cu248       N251   2.070       .  S
Cu249       N259   2.080       .  S
Cu250       N252   2.073       .  S
Cu250       N258   2.073       .  S
N251        N252   1.322       .  A
N251        C255   1.345   1_454  A
N252        C253   1.345   1_454  A
C253        C254   1.384       .  A
C253        H256   1.082       .  S
C254        C255   1.383       .  A
C254        C276   1.469       .  S
C255        H257   1.082       .  S
N258        N259   1.323       .  A
N258        C262   1.344       .  A
N259        C260   1.346       .  A
C260        C261   1.385       .  A
C260        H263   1.082       .  S
C261        C262   1.383       .  A
C261        C583   1.487       .  S
C262        H264   1.082       .  S
O265       Cu273   2.011       .  S
O265        C275   1.278       .  A
O266       Cu273   2.009       .  S
O266        C276   1.277       .  A
O267       Cu273   2.016       .  S
O267        C277   1.278       .  A
O268       Cu273   2.012       .  S
O268        C278   1.278       .  A
O269       Cu274   2.007       .  S
O269        C278   1.277       .  A
O270       Cu274   2.012       .  S
O270        C277   1.278       .  A
O271       Cu274   2.013       .  S
O271        C276   1.278       .  A
O272       Cu274   2.013       .  S
O272        C275   1.278       .  A
Cu273      Cu274   2.375       .  S
N279        N280   1.323       .  A
N279        C283   1.344       .  A
N279       Cu287   2.069       .  S
N280        C281   1.345       .  A
N280       Cu286   2.078       .  S
C281        C282   1.384       .  A
C281        H284   1.082       .  S
C282        C283   1.382       .  A
C282        C926   1.484       .  S
C283        H285   1.082       .  S
Cu286       N289   2.079       .  S
Cu287       N297   2.070       .  S
Cu288       N290   2.074       .  S
Cu288       N296   2.074       .  S
N289        N290   1.323       .  A
N289        C293   1.346       .  A
N290        C291   1.345       .  A
C291        C292   1.382       .  A
C291        H294   1.081       .  S
C292        C293   1.384       .  A
C292        C385   1.470       .  S
C293        H295   1.082       .  S
N296        N297   1.322       .  A
N296        C300   1.345       .  A
N297        C298   1.344       .  A
C298        C299   1.383       .  A
C298        H301   1.082       .  S
C299        C300   1.384       .  A
C299       C1122   1.486       .  S
C300        H302   1.082       .  S
N303        N304   1.323       .  A
N303        C307   1.344       .  A
N303       Cu311   2.066       .  S
N304        C305   1.346       .  A
N304       Cu310   2.082       .  S
C305        C306   1.383       .  A
C305        H308   1.082       .  S
C306        C307   1.379       .  A
C306       C1038   1.480       .  S
C307        H309   1.082       .  S
Cu310       N313   2.082       .  S
Cu311       N321   2.066       .  S
Cu312       N314   2.063       .  S
Cu312       N320   2.064       .  S
N313        N314   1.322       .  A
N313        C317   1.347   1_545  A
N314        C315   1.343   1_545  A
C315        C316   1.380       .  A
C315        H318   1.082       .  S
C316        C317   1.385       .  A
C316        C387   1.467       .  S
C317        H319   1.082       .  S
N320        N321   1.320       .  A
N320        C324   1.344       .  A
N321        C322   1.344       .  A
C322        C323   1.383       .  A
C322        H325   1.081       .  S
C323        C324   1.384       .  A
C323        C975   1.484       .  S
C324        H326   1.078       .  S
N327        N328   1.323       .  A
N327        C331   1.345       .  A
N327       Cu335   2.078       .  S
N328        C329   1.344       .  A
N328       Cu334   2.068       .  S
C329        C330   1.381       .  A
C329        H332   1.082       .  S
C330        C331   1.383       .  A
C330        C807   1.484       .  S
C331        H333   1.082       .  S
Cu334       N337   2.068       .  S
Cu335       N345   2.078       .  S
Cu336       N338   2.064       .  S
Cu336       N344   2.064       .  S
N337        N338   1.321       .  A
N337        C341   1.346   1_554  A
N338        C339   1.342   1_554  A
C339        C340   1.380       .  A
C339        H342   1.082       .  S
C340        C341   1.383       .  A
C340        C388   1.465       .  S
C341        H343   1.082       .  S
N344        N345   1.322       .  A
N344        C348   1.343       .  A
N345        C346   1.346       .  A
C346        C347   1.385       .  A
C346        H349   1.082       .  S
C347        C348   1.383       .  A
C347        C723   1.487       .  S
C348        H350   1.082       .  S
N351        N352   1.322       .  A
N351        C355   1.344       .  A
N351       Cu359   2.075       .  S
N352        C353   1.346       .  A
N352       Cu358   2.076       .  S
C353        C354   1.385       .  A
C353        H356   1.082       .  S
C354        C355   1.384       .  A
C354        C562   1.490       .  S
C355        H357   1.082       .  S
Cu358       N361   2.076       .  S
Cu359       N369   2.075       .  S
Cu360       N362   2.078       .  S
Cu360       N368   2.078       .  S
N361        N362   1.323       .  A
N361        C365   1.345   1_544  A
N362        C363   1.347   1_544  A
C363        C364   1.384       .  A
C363        H366   1.082       .  S
C364        C365   1.383       .  A
C364        C386   1.471       .  S
C365        H367   1.082       .  S
N368        N369   1.322       .  A
N368        C372   1.345       .  A
N369        C370   1.346       .  A
C370        C371   1.385       .  A
C370        H373   1.082       .  S
C371        C372   1.385       .  A
C371        C611   1.489       .  S
C372        H374   1.082       .  S
O375       Cu383   2.010       .  S
O375        C385   1.277       .  A
O376       Cu383   2.010       .  S
O376        C386   1.278       .  A
O377       Cu383   2.010       .  S
O377        C387   1.278       .  A
O378       Cu383   2.007       .  S
O378        C388   1.277       .  A
O379       Cu384   2.002       .  S
O379        C388   1.277       .  A
O380       Cu384   2.005       .  S
O380        C387   1.276       .  A
O381       Cu384   2.015       .  S
O381        C386   1.278       .  A
O382       Cu384   2.014       .  S
O382        C385   1.278       .  A
Cu383      Cu384   2.376       .  S
N389        N390   1.322       .  A
N389        C393   1.344       .  A
N389       Cu397   2.066       .  S
N390        C391   1.345       .  A
N390       Cu396   2.076       .  S
C391        C392   1.384       .  A
C391        H394   1.082       .  S
C392        C393   1.381       .  A
C392        C527   1.483       .  S
C393        H395   1.082       .  S
Cu396       N399   2.076       .  S
Cu397       N407   2.066       .  S
Cu398       N400   2.074       .  S
Cu398       N406   2.074       .  S
N399        N400   1.322       .  A
N399        C403   1.345       .  A
N400        C401   1.344       .  A
C401        C402   1.385       .  A
C401        H404   1.082       .  S
C402        C403   1.385       .  A
C402        C555   1.491       .  S
C403        H405   1.082       .  S
N406        N407   1.322       .  A
N406        C410   1.345       .  A
N407        C408   1.344       .  A
C408        C409   1.382       .  A
C408        H411   1.082       .  S
C409        C410   1.384       .  A
C409        C590   1.483       .  S
C410        H412   1.082       .  S
N413        N414   1.323       .  A
N413        C417   1.344       .  A
N413       Cu421   2.068       .  S
N414        C415   1.347       .  A
N414       Cu420   2.084       .  S
C415        C416   1.385       .  A
C415        H418   1.082       .  S
C416        C417   1.381       .  A
C416       C1178   1.485       .  S
C417        H419   1.082       .  S
Cu420       N423   2.083       .  S
Cu421       N431   2.067       .  S
Cu422       N424   2.062       .  S
Cu422       N430   2.062       .  S
N423        N424   1.323       .  A
N423        C427   1.347       .  A
N424        C425   1.342       .  A
C425        C426   1.379       .  A
C425        H428   1.082       .  S
C426        C427   1.385       .  A
C426        C522   1.466       .  S
C427        H429   1.082       .  S
N430        N431   1.321       .  A
N430        C434   1.344       .  A
N431        C432   1.344       .  A
C432        C433   1.384       .  A
C432        H435   1.082       .  S
C433        C434   1.383       .  A
C433        C758   1.484       .  S
C434        H436   1.082       .  S
N437        N438   1.323       .  A
N437        C441   1.346       .  A
N437       Cu445   2.078       .  S
N438        C439   1.346       .  A
N438       Cu444   2.081       .  S
C439        C440   1.385       .  A
C439        H442   1.082       .  S
C440        C441   1.384       .  A
C440        C842   1.489       .  S
C441        H443   1.082       .  S
Cu444       N447   2.080       .  S
Cu445       N455   2.078       .  S
Cu446       N448   2.071       .  S
Cu446       N454   2.071       .  S
N447        N448   1.322       .  A
N447        C451   1.346   1_455  A
N448        C449   1.345   1_455  A
C449        C450   1.382       .  A
C449        H452   1.082       .  S
C450        C451   1.385       .  A
C450        C519   1.471       .  S
C451        H453   1.082       .  S
N454        N455   1.322       .  A
N454        C458   1.345       .  A
N455        C456   1.346       .  A
C456        C457   1.385       .  A
C456        H459   1.082       .  S
C457        C458   1.383       .  A
C457        C891   1.487       .  S
C458        H460   1.082       .  S
N461        N462   1.322       .  A
N461        C465   1.345       .  A
N461       Cu469   2.069       .  S
N462        C463   1.345       .  A
N462       Cu468   2.077       .  S
C463        C464   1.384       .  A
C463        H466   1.082       .  S
C464        C465   1.383       .  A
C464       C1066   1.485       .  S
C465        H467   1.082       .  S
Cu468       N471   2.077       .  S
Cu469       N479   2.069       .  S
Cu470       N472   2.073       .  S
Cu470       N478   2.073       .  S
N471        N472   1.323       .  A
N471        C475   1.346   1_545  A
N472        C473   1.345   1_545  A
C473        C474   1.382       .  A
C473        H476   1.082       .  S
C474        C475   1.383       .  A
C474        C520   1.469       .  S
C475        H477   1.082       .  S
N478        N479   1.322       .  A
N478        C482   1.345       .  A
N479        C480   1.343       .  A
C480        C481   1.383       .  A
C480        H483   1.082       .  S
C481        C482   1.385       .  A
C481        C674   1.486       .  S
C482        H484   1.082       .  S
N485        N486   1.322       .  A
N485        C489   1.344       .  A
N485       Cu493   2.072       .  S
N486        C487   1.344       .  A
N486       Cu492   2.072       .  S
C487        C488   1.384       .  A
C487        H490   1.082       .  S
C488        C489   1.383       .  A
C488        C534   1.486       .  S
C489        H491   1.082       .  S
Cu492       N495   2.072       .  S
Cu493       N503   2.072       .  S
Cu494       N496   2.060       .  S
Cu494       N502   2.060       .  S
N495        N496   1.322       .  A
N495        C499   1.346   1_445  A
N496        C497   1.341   1_445  A
C497        C498   1.379       .  A
C497        H500   1.082       .  S
C498        C499   1.383       .  A
C498        C521   1.463       .  S
C499        H501   1.082       .  S
N502        N503   1.321       .  A
N502        C506   1.344       .  A
N503        C504   1.343       .  A
C504        C505   1.386       .  A
C504        H507   1.082       .  S
C505        C506   1.384       .  A
C505        C947   1.487       .  S
C506        H508   1.082       .  S
O509       Cu517   2.008       .  S
O509        C519   1.277       .  A
O510       Cu517   2.010       .  S
O510        C520   1.278       .  A
O511       Cu517   2.005       .  S
O511        C521   1.276       .  A
O512       Cu517   2.005       .  S
O512        C522   1.278       .  A
O513       Cu518   2.007       .  S
O513        C522   1.277       .  A
O514       Cu518   2.002       .  S
O514        C521   1.277       .  A
O515       Cu518   2.011       .  S
O515        C520   1.278       .  A
O516       Cu518   2.015       .  S
O516        C519   1.279       .  A
Cu517      Cu518   2.377       .  S
C523        C524   1.409       .  A
C523        C528   1.409       .  A
C523        C541   1.451       .  S
C524        C525   1.410       .  A
C524        C529   1.492       .  S
C525        C526   1.409       .  A
C525        C530   1.451       .  S
C526        C527   1.414       .  A
C526        C542   1.451       .  S
C527        C528   1.414       .  A
C528        C531   1.451       .  S
C529        C532   1.409       .  A
C529        C536   1.409       .  A
C530        N547   1.157       .  T
C531        N549   1.157       .  T
C532        C533   1.408       .  A
C532        C537   1.451       .  S
C533        C534   1.415       .  A
C533        C539   1.451       .  S
C534        C535   1.416       .  A
C535        C536   1.410       .  A
C535        C538   1.451       .  S
C536        C540   1.451       .  S
C537        N544   1.157       .  T
C538        N545   1.157       .  T
C539        N543   1.157       .  T
C540        N546   1.157       .  T
C541        N550   1.157       .  T
C542        N548   1.157       .  T
C551        C552   1.409       .  A
C551        C556   1.410       .  A
C551        C569   1.451       .  S
C552        C553   1.410       .  A
C552        C557   1.495       .  S
C553        C554   1.411       .  A
C553        C558   1.451       .  S
C554        C555   1.416       .  A
C554        C570   1.451       .  S
C555        C556   1.417       .  A
C556        C559   1.451       .  S
C557        C560   1.409       .  A
C557        C564   1.410       .  A
C558        N575   1.157       .  T
C559        N577   1.157       .  T
C560        C561   1.410       .  A
C560        C565   1.451       .  S
C561        C562   1.416       .  A
C561        C567   1.451       .  S
C562        C563   1.416       .  A
C563        C564   1.412       .  A
C563        C566   1.451       .  S
C564        C568   1.451       .  S
C565        N572   1.157       .  T
C566        N573   1.157       .  T
C567        N571   1.157       .  T
C568        N574   1.157       .  T
C569        N578   1.157       .  T
C570        N576   1.157       .  T
C579        C580   1.409       .  A
C579        C584   1.410       .  A
C579        C597   1.451       .  S
C580        C581   1.410       .  A
C580        C585   1.493       .  S
C581        C582   1.411       .  A
C581        C586   1.451       .  S
C582        C583   1.415       .  A
C582        C598   1.450       .  S
C583        C584   1.415       .  A
C584        C587   1.451       .  S
C585        C588   1.410       .  A
C585        C592   1.410       .  A
C586        N603   1.157       .  T
C587        N605   1.157       .  T
C588        C589   1.409       .  A
C588        C593   1.451       .  S
C589        C590   1.414       .  A
C589        C595   1.451       .  S
C590        C591   1.414       .  A
C591        C592   1.410       .  A
C591        C594   1.451       .  S
C592        C596   1.451       .  S
C593        N600   1.157       .  T
C594        N601   1.157       .  T
C595        N599   1.157       .  T
C596        N602   1.157       .  T
C597        N606   1.157       .  T
C598        N604   1.157       .  T
C607        C608   1.410       .  A
C607        C612   1.411       .  A
C607        C625   1.450       .  S
C608        C609   1.411       .  A
C608        C613   1.497       .  S
C609        C610   1.412       .  A
C609        C614   1.450       .  S
C610        C611   1.416       .  A
C610        C626   1.451       .  S
C611        C612   1.415       .  A
C612        C615   1.451       .  S
C613        C616   1.410       .  A
C613        C620   1.411       .  A
C614        N631   1.157       .  T
C615        N633   1.157       .  T
C616        C617   1.411       .  A
C616        C621   1.451       .  S
C617        C618   1.416       .  A
C617        C623   1.450       .  S
C618        C619   1.415       .  A
C619        C620   1.413       .  A
C619        C622   1.450       .  S
C620        C624   1.450       .  S
C621        N628   1.157       .  T
C622        N629   1.157       .  T
C623        N627   1.157       .  T
C624        N630   1.157       .  T
C625        N634   1.157       .  T
C626        N632   1.157       .  T
C635        C636   1.410       .  A
C635        C640   1.410       .  A
C635        C653   1.451       .  S
C636        C637   1.410       .  A
C636        C641   1.497       .  S
C637        C638   1.412       .  A
C637        C642   1.451       .  S
C638        C639   1.416       .  A
C638        C654   1.451       .  S
C639        C640   1.416       .  A
C640        C643   1.451       .  S
C641        C644   1.410       .  A
C641        C648   1.409       .  A
C642        N659   1.157       .  T
C643        N661   1.157       .  T
C644        C645   1.412       .  A
C644        C649   1.451       .  S
C645        C646   1.417       .  A
C645        C651   1.450       .  S
C646        C647   1.417       .  A
C647        C648   1.410       .  A
C647        C650   1.451       .  S
C648        C652   1.451       .  S
C649        N656   1.157       .  T
C650        N657   1.157       .  T
C651        N655   1.157       .  T
C652        N658   1.157       .  T
C653        N662   1.157       .  T
C654        N660   1.157       .  T
C663        C664   1.410       .  A
C663        C668   1.411       .  A
C663        C681   1.451       .  S
C664        C665   1.409       .  A
C664        C669   1.494       .  S
C665        C666   1.410       .  A
C665        C670   1.451       .  S
C666        C667   1.416       .  A
C666        C682   1.451       .  S
C667        C668   1.415       .  A
C668        C671   1.450       .  S
C669        C672   1.410       .  A
C669        C676   1.410       .  A
C670        N687   1.157       .  T
C671        N689   1.157       .  T
C672        C673   1.410       .  A
C672        C677   1.451       .  S
C673        C674   1.415       .  A
C673        C679   1.451       .  S
C674        C675   1.415       .  A
C675        C676   1.410       .  A
C675        C678   1.451       .  S
C676        C680   1.450       .  S
C677        N684   1.157       .  T
C678        N685   1.157       .  T
C679        N683   1.157       .  T
C680        N686   1.157       .  T
C681        N690   1.157       .  T
C682        N688   1.157       .  T
C691        C692   1.410       .  A
C691        C696   1.410       .  A
C691        C709   1.450       .  S
C692        C693   1.410       .  A
C692        C697   1.494       .  S
C693        C694   1.410       .  A
C693        C698   1.451       .  S
C694        C695   1.414       .  A
C694        C710   1.451       .  S
C695        C696   1.414       .  A
C696        C699   1.451       .  S
C697        C700   1.410       .  A
C697        C704   1.409       .  A
C698        N715   1.157       .  T
C699        N717   1.157       .  T
C700        C701   1.410       .  A
C700        C705   1.451       .  S
C701        C702   1.413       .  A
C701        C707   1.450       .  S
C702        C703   1.415       .  A
C703        C704   1.410       .  A
C703        C706   1.451       .  S
C704        C708   1.450       .  S
C705        N712   1.157       .  T
C706        N713   1.157       .  T
C707        N711   1.157       .  T
C708        N714   1.157       .  T
C709        N718   1.157       .  T
C710        N716   1.157       .  T
C719        C720   1.410       .  A
C719        C724   1.410       .  A
C719        C737   1.451       .  S
C720        C721   1.409       .  A
C720        C725   1.494       .  S
C721        C722   1.410       .  A
C721        C726   1.451       .  S
C722        C723   1.416       .  A
C722        C738   1.451       .  S
C723        C724   1.414       .  A
C724        C727   1.451       .  S
C725        C728   1.410       .  A
C725        C732   1.410       .  A
C726        N743   1.157       .  T
C727        N745   1.157       .  T
C728        C729   1.410       .  A
C728        C733   1.451       .  S
C729        C730   1.414       .  A
C729        C735   1.451       .  S
C730        C731   1.415       .  A
C731        C732   1.410       .  A
C731        C734   1.451       .  S
C732        C736   1.451       .  S
C733        N740   1.157       .  T
C734        N741   1.157       .  T
C735        N739   1.157       .  T
C736        N742   1.157       .  T
C737        N746   1.157       .  T
C738        N744   1.157       .  T
C747        C748   1.409       .  A
C747        C752   1.410       .  A
C747        C765   1.451       .  S
C748        C749   1.409       .  A
C748        C753   1.492       .  S
C749        C750   1.408       .  A
C749        C754   1.451       .  S
C750        C751   1.416       .  A
C750        C766   1.451       .  S
C751        C752   1.416       .  A
C752        C755   1.451       .  S
C753        C756   1.410       .  A
C753        C760   1.410       .  A
C754        N771   1.157       .  T
C755        N773   1.157       .  T
C756        C757   1.409       .  A
C756        C761   1.451       .  S
C757        C758   1.415       .  A
C757        C763   1.451       .  S
C758        C759   1.414       .  A
C759        C760   1.409       .  A
C759        C762   1.451       .  S
C760        C764   1.451       .  S
C761        N768   1.157       .  T
C762        N769   1.157       .  T
C763        N767   1.157       .  T
C764        N770   1.157       .  T
C765        N774   1.157       .  T
C766        N772   1.157       .  T
C775        C776   1.409       .  A
C775        C780   1.411       .  A
C775        C793   1.451       .  S
C776        C777   1.409       .  A
C776        C781   1.495       .  S
C777        C778   1.410       .  A
C777        C782   1.451       .  S
C778        C779   1.417       .  A
C778        C794   1.451       .  S
C779        C780   1.417       .  A
C780        C783   1.451       .  S
C781        C784   1.409       .  A
C781        C788   1.409       .  A
C782        N799   1.157       .  T
C783        N801   1.157       .  T
C784        C785   1.410       .  A
C784        C789   1.451       .  S
C785        C786   1.416       .  A
C785        C791   1.450       .  S
C786        C787   1.417       .  A
C787        C788   1.412       .  A
C787        C790   1.451       .  S
C788        C792   1.451       .  S
C789        N796   1.157       .  T
C790        N797   1.157       .  T
C791        N795   1.157       .  T
C792        N798   1.157       .  T
C793        N802   1.157       .  T
C794        N800   1.157       .  T
C803        C804   1.410       .  A
C803        C808   1.410       .  A
C803        C821   1.450       .  S
C804        C805   1.410       .  A
C804        C809   1.493       .  S
C805        C806   1.409       .  A
C805        C810   1.451       .  S
C806        C807   1.414       .  A
C806        C822   1.451       .  S
C807        C808   1.414       .  A
C808        C811   1.451       .  S
C809        C812   1.410       .  A
C809        C816   1.410       .  A
C810        N827   1.157       .  T
C811        N829   1.157       .  T
C812        C813   1.410       .  A
C812        C817   1.451       .  S
C813        C814   1.414       .  A
C813        C819   1.450       .  S
C814        C815   1.415       .  A
C815        C816   1.410       .  A
C815        C818   1.451       .  S
C816        C820   1.451       .  S
C817        N824   1.157       .  T
C818        N825   1.157       .  T
C819        N823   1.157       .  T
C820        N826   1.157       .  T
C821        N830   1.157       .  T
C822        N828   1.157       .  T
C831        C832   1.409       .  A
C831        C836   1.412       .  A
C831        C849   1.451       .  S
C832        C833   1.410       .  A
C832        C837   1.498       .  S
C833        C834   1.412       .  A
C833        C838   1.451       .  S
C834        C835   1.416       .  A
C834        C850   1.450       .  S
C835        C836   1.417       .  A
C836        C839   1.450       .  S
C837        C840   1.410       .  A
C837        C844   1.411       .  A
C838        N855   1.157       .  T
C839        N857   1.157       .  T
C840        C841   1.411       .  A
C840        C845   1.450       .  S
C841        C842   1.415       .  A
C841        C847   1.451       .  S
C842        C843   1.415       .  A
C843        C844   1.412       .  A
C843        C846   1.451       .  S
C844        C848   1.450       .  S
C845        N852   1.157       .  T
C846        N853   1.157       .  T
C847        N851   1.157       .  T
C848        N854   1.157       .  T
C849        N858   1.157       .  T
C850        N856   1.157       .  T
C859        C860   1.411       .  A
C859        C864   1.412       .  A
C859        C877   1.450       .  S
C860        C861   1.411       .  A
C860        C865   1.496       .  S
C861        C862   1.410       .  A
C861        C866   1.451       .  S
C862        C863   1.413       .  A
C862        C878   1.451       .  S
C863        C864   1.413       .  A
C864        C867   1.450       .  S
C865        C868   1.410       .  A
C865        C872   1.411       .  A
C866        N883   1.157       .  T
C867        N885   1.157       .  T
C868        C869   1.411       .  A
C868        C873   1.451       .  S
C869        C870   1.414       .  A
C869        C875   1.450       .  S
C870        C871   1.414       .  A
C871        C872   1.411       .  A
C871        C874   1.450       .  S
C872        C876   1.451       .  S
C873        N880   1.157       .  T
C874        N881   1.157       .  T
C875        N879   1.157       .  T
C876        N882   1.157       .  T
C877        N886   1.157       .  T
C878        N884   1.157       .  T
C887        C888   1.410       .  A
C887        C892   1.411       .  A
C887        C905   1.450       .  S
C888        C889   1.411       .  A
C888        C893   1.497       .  S
C889        C890   1.411       .  A
C889        C894   1.451       .  S
C890        C891   1.414       .  A
C890        C906   1.451       .  S
C891        C892   1.415       .  A
C892        C895   1.451       .  S
C893        C896   1.409       .  A
C893        C900   1.410       .  A
C894        N911   1.157       .  T
C895        N913   1.157       .  T
C896        C897   1.411       .  A
C896        C901   1.451       .  S
C897        C898   1.417       .  A
C897        C903   1.451       .  S
C898        C899   1.415       .  A
C899        C900   1.413       .  A
C899        C902   1.450       .  S
C900        C904   1.450       .  S
C901        N908   1.157       .  T
C902        N909   1.157       .  T
C903        N907   1.157       .  T
C904        N910   1.157       .  T
C905        N914   1.157       .  T
C906        N912   1.157       .  T
C915        C916   1.409       .  A
C915        C920   1.410       .  A
C915        C933   1.451       .  S
C916        C917   1.410       .  A
C916        C921   1.494       .  S
C917        C918   1.411       .  A
C917        C922   1.451       .  S
C918        C919   1.415       .  A
C918        C934   1.451       .  S
C919        C920   1.416       .  A
C920        C923   1.450       .  S
C921        C924   1.410       .  A
C921        C928   1.411       .  A
C922        N939   1.157       .  T
C923        N941   1.157       .  T
C924        C925   1.411       .  A
C924        C929   1.450       .  S
C925        C926   1.415       .  A
C925        C931   1.451       .  S
C926        C927   1.413       .  A
C927        C928   1.409       .  A
C927        C930   1.451       .  S
C928        C932   1.451       .  S
C929        N936   1.157       .  T
C930        N937   1.157       .  T
C931        N935   1.157       .  T
C932        N938   1.157       .  T
C933        N942   1.157       .  T
C934        N940   1.157       .  T
C943        C944   1.409       .  A
C943        C948   1.411       .  A
C943        C961   1.451       .  S
C944        C945   1.409       .  A
C944        C949   1.493       .  S
C945        C946   1.408       .  A
C945        C950   1.451       .  S
C946        C947   1.415       .  A
C946        C962   1.451       .  S
C947        C948   1.417       .  A
C948        C951   1.451       .  S
C949        C952   1.409       .  A
C949        C956   1.409       .  A
C950        N967   1.157       .  T
C951        N969   1.158       .  T
C952        C953   1.411       .  A
C952        C957   1.451       .  S
C953        C954   1.417       .  A
C953        C959   1.451       .  S
C954        C955   1.416       .  A
C955        C956   1.410       .  A
C955        C958   1.450       .  S
C956        C960   1.451       .  S
C957        N964   1.157       .  T
C958        N965   1.157       .  T
C959        N963   1.157       .  T
C960        N966   1.157       .  T
C961        N970   1.157       .  T
C962        N968   1.157       .  T
C971        C972   1.409       .  A
C971        C976   1.409       .  A
C971        C989   1.450       .  S
C972        C973   1.411       .  A
C972        C977   1.493       .  S
C973        C974   1.410       .  A
C973        C978   1.451       .  S
C974        C975   1.414       .  A
C974        C990   1.451       .  S
C975        C976   1.415       .  A
C976        C979   1.451       .  S
C977        C980   1.409       .  A
C977        C984   1.409       .  A
C978        N995   1.157       .  T
C979        N997   1.157       .  T
C980        C981   1.411       .  A
C980        C985   1.451       .  S
C981        C982   1.418       .  A
C981        C987   1.450       .  S
C982        C983   1.416       .  A
C983        C984   1.409       .  A
C983        C986   1.451       .  S
C984        C988   1.451       .  S
C985        N992   1.157       .  T
C986        N993   1.157       .  T
C987        N991   1.157       .  T
C988        N994   1.157       .  T
C989        N998   1.157       .  T
C990        N996   1.157       .  T
C999       C1000   1.410       .  A
C999       C1004   1.409       .  A
C999       C1017   1.451       .  S
C1000      C1001   1.411       .  A
C1000      C1005   1.494       .  S
C1001      C1002   1.411       .  A
C1001      C1006   1.450       .  S
C1002      C1003   1.414       .  A
C1002      C1018   1.451       .  S
C1003      C1004   1.413       .  A
C1004      C1007   1.451       .  S
C1005      C1008   1.411       .  A
C1005      C1012   1.411       .  A
C1006      N1023   1.157       .  T
C1007      N1025   1.157       .  T
C1008      C1009   1.410       .  A
C1008      C1013   1.450       .  S
C1009      C1010   1.412       .  A
C1009      C1015   1.451       .  S
C1010      C1011   1.413       .  A
C1011      C1012   1.410       .  A
C1011      C1014   1.450       .  S
C1012      C1016   1.450       .  S
C1013      N1020   1.157       .  T
C1014      N1021   1.157       .  T
C1015      N1019   1.157       .  T
C1016      N1022   1.157       .  T
C1017      N1026   1.157       .  T
C1018      N1024   1.157       .  T
C1027      C1028   1.410       .  A
C1027      C1032   1.410       .  A
C1027      C1045   1.451       .  S
C1028      C1029   1.409       .  A
C1028      C1033   1.493       .  S
C1029      C1030   1.409       .  A
C1029      C1034   1.451       .  S
C1030      C1031   1.414       .  A
C1030      C1046   1.451       .  S
C1031      C1032   1.414       .  A
C1032      C1035   1.451       .  S
C1033      C1036   1.410       .  A
C1033      C1040   1.410       .  A
C1034      N1051   1.157       .  T
C1035      N1053   1.157       .  T
C1036      C1037   1.409       .  A
C1036      C1041   1.450       .  S
C1037      C1038   1.412       .  A
C1037      C1043   1.451       .  S
C1038      C1039   1.412       .  A
C1039      C1040   1.409       .  A
C1039      C1042   1.450       .  S
C1040      C1044   1.451       .  S
C1041      N1048   1.157       .  T
C1042      N1049   1.157       .  T
C1043      N1047   1.157       .  T
C1044      N1050   1.157       .  T
C1045      N1054   1.157       .  T
C1046      N1052   1.157       .  T
C1055      C1056   1.410       .  A
C1055      C1060   1.411       .  A
C1055      C1073   1.451       .  S
C1056      C1057   1.409       .  A
C1056      C1061   1.494       .  S
C1057      C1058   1.409       .  A
C1057      C1062   1.451       .  S
C1058      C1059   1.415       .  A
C1058      C1074   1.451       .  S
C1059      C1060   1.415       .  A
C1060      C1063   1.451       .  S
C1061      C1064   1.410       .  A
C1061      C1068   1.410       .  A
C1062      N1079   1.157       .  T
C1063      N1081   1.157       .  T
C1064      C1065   1.410       .  A
C1064      C1069   1.451       .  S
C1065      C1066   1.414       .  A
C1065      C1071   1.451       .  S
C1066      C1067   1.414       .  A
C1067      C1068   1.410       .  A
C1067      C1070   1.451       .  S
C1068      C1072   1.450       .  S
C1069      N1076   1.157       .  T
C1070      N1077   1.157       .  T
C1071      N1075   1.157       .  T
C1072      N1078   1.157       .  T
C1073      N1082   1.157       .  T
C1074      N1080   1.157       .  T
C1083      C1084   1.410       .  A
C1083      C1088   1.410       .  A
C1083      C1101   1.450       .  S
C1084      C1085   1.411       .  A
C1084      C1089   1.496       .  S
C1085      C1086   1.411       .  A
C1085      C1090   1.451       .  S
C1086      C1087   1.413       .  A
C1086      C1102   1.451       .  S
C1087      C1088   1.414       .  A
C1088      C1091   1.451       .  S
C1089      C1092   1.410       .  A
C1089      C1096   1.410       .  A
C1090      N1107   1.157       .  T
C1091      N1109   1.157       .  T
C1092      C1093   1.412       .  A
C1092      C1097   1.451       .  S
C1093      C1094   1.416       .  A
C1093      C1099   1.451       .  S
C1094      C1095   1.415       .  A
C1095      C1096   1.410       .  A
C1095      C1098   1.451       .  S
C1096      C1100   1.451       .  S
C1097      N1104   1.157       .  T
C1098      N1105   1.157       .  T
C1099      N1103   1.157       .  T
C1100      N1106   1.157       .  T
C1101      N1110   1.157       .  T
C1102      N1108   1.157       .  T
C1111      C1112   1.410       .  A
C1111      C1116   1.411       .  A
C1111      C1129   1.451       .  S
C1112      C1113   1.409       .  A
C1112      C1117   1.496       .  S
C1113      C1114   1.412       .  A
C1113      C1118   1.451       .  S
C1114      C1115   1.416       .  A
C1114      C1130   1.450       .  S
C1115      C1116   1.416       .  A
C1116      C1119   1.450       .  S
C1117      C1120   1.410       .  A
C1117      C1124   1.411       .  A
C1118      N1135   1.157       .  T
C1119      N1137   1.157       .  T
C1120      C1121   1.411       .  A
C1120      C1125   1.450       .  S
C1121      C1122   1.415       .  A
C1121      C1127   1.451       .  S
C1122      C1123   1.414       .  A
C1123      C1124   1.411       .  A
C1123      C1126   1.451       .  S
C1124      C1128   1.450       .  S
C1125      N1132   1.157       .  T
C1126      N1133   1.157       .  T
C1127      N1131   1.157       .  T
C1128      N1134   1.157       .  T
C1129      N1138   1.157       .  T
C1130      N1136   1.157       .  T
C1139      C1140   1.410       .  A
C1139      C1144   1.411       .  A
C1139      C1157   1.451       .  S
C1140      C1141   1.410       .  A
C1140      C1145   1.497       .  S
C1141      C1142   1.412       .  A
C1141      C1146   1.450       .  S
C1142      C1143   1.416       .  A
C1142      C1158   1.450       .  S
C1143      C1144   1.415       .  A
C1144      C1147   1.450       .  S
C1145      C1148   1.411       .  A
C1145      C1152   1.410       .  A
C1146      N1163   1.157       .  T
C1147      N1165   1.157       .  T
C1148      C1149   1.411       .  A
C1148      C1153   1.451       .  S
C1149      C1150   1.413       .  A
C1149      C1155   1.451       .  S
C1150      C1151   1.415       .  A
C1151      C1152   1.412       .  A
C1151      C1154   1.451       .  S
C1152      C1156   1.450       .  S
C1153      N1160   1.157       .  T
C1154      N1161   1.157       .  T
C1155      N1159   1.157       .  T
C1156      N1162   1.157       .  T
C1157      N1166   1.157       .  T
C1158      N1164   1.157       .  T
C1167      C1168   1.410       .  A
C1167      C1172   1.412       .  A
C1167      C1185   1.451       .  S
C1168      C1169   1.410       .  A
C1168      C1173   1.497       .  S
C1169      C1170   1.411       .  A
C1169      C1174   1.451       .  S
C1170      C1171   1.414       .  A
C1170      C1186   1.450       .  S
C1171      C1172   1.415       .  A
C1172      C1175   1.450       .  S
C1173      C1176   1.411       .  A
C1173      C1180   1.411       .  A
C1174      N1191   1.157       .  T
C1175      N1193   1.157       .  T
C1176      C1177   1.411       .  A
C1176      C1181   1.450       .  S
C1177      C1178   1.413       .  A
C1177      C1183   1.450       .  S
C1178      C1179   1.414       .  A
C1179      C1180   1.411       .  A
C1179      C1182   1.451       .  S
C1180      C1184   1.450       .  S
C1181      N1188   1.157       .  T
C1182      N1189   1.157       .  T
C1183      N1187   1.157       .  T
C1184      N1190   1.157       .  T
C1185      N1194   1.157       .  T
C1186      N1192   1.157       .  T
