geometry optimzed in LAMMPS
_audit_creation_date              2020-11-30 
_audit_creation_method            'lammps2cif' 
_symmetry_space_group_name_H-M    'P1' 
_symmetry_Int_Tables_number       1 
_symmetry_cell_setting            triclinic 
loop_ 
_symmetry_equiv_pos_as_xyz 
  x,y,z 
_cell_length_a                    34.32694939282428 
_cell_length_b                    34.33716026437135 
_cell_length_c                    56.659664350441986 
_cell_angle_alpha                 89.79825578049511 
_cell_angle_beta                  89.7454897546326 
_cell_angle_gamma                 90.3117913017002 
loop_ 
_atom_site_label 
_atom_site_type_symbol 
_atom_site_fract_x 
_atom_site_fract_y 
_atom_site_fract_z 
_atom_site_charge 
C1          C  0.25434697  0.49397612  0.25016622    -0.02900
C2          C  0.48098857  0.25250664  0.00108253     0.00150
C3          C  0.02058324  0.24675355  0.00039738     0.00150
C4          C  0.24961028  0.49681443  0.74943266    -0.02900
C5          C  0.00077249  0.25251379  0.75331821    -0.02900
C6          C  0.24738865  0.47700426  0.00111611     0.00150
C7          C  0.24275777  0.01663852  0.00147280     0.00150
C8          C  0.24140305  0.36999243  0.92239305     0.42040
N9          N  0.26180294  0.32943760  0.89628832     0.00930
C10         C  0.15509709  0.20776903  0.82416247    -0.06940
H11         H  0.13978693  0.17632498  0.91359120     0.06420
C12         C  0.28885684  0.14388759  0.91231701    -0.07300
Co13       Co  0.19633046  0.29368658  0.86910223     0.74180
N14         N  0.16977161  0.22163523  0.89425749    -0.26470
Co15       Co  0.20405187  0.19297698  0.86933787     0.74070
C16         C  0.25442143  0.12475217  0.92257659     0.42140
N17         N  0.33195246  0.23398048  0.89618997     0.00550
N18         N  0.23650827  0.16457569  0.89532586     0.00650
N19         N  0.15050935  0.27324035  0.82472394    -0.47320
H20         H  0.17712370  0.35438155  0.91435921     0.06410
N21         N  0.16665814  0.25993390  0.89413877     0.00940
N22         N  0.23788023  0.16584496  0.84404737     0.00680
C23         C  0.25529926  0.12860227  0.81569882     0.42280
N24         N  0.32840935  0.27222955  0.89663721    -0.25930
C25         C  0.21410825  0.34774614  0.82573989    -0.06850
N26         N  0.27367229  0.35507050  0.91212934    -0.47040
N27         N  0.22433717  0.14240909  0.82755910    -0.47260
C28         C  0.24943917  0.36473106  0.81554584     0.42060
N29         N  0.17131959  0.26023347  0.84265137     0.00930
N30         N  0.32863029  0.27376068  0.84537493    -0.25950
N31         N  0.22348184  0.32659307  0.89533339    -0.26440
N32         N  0.33167227  0.23553879  0.84443313     0.00570
H33         H  0.35046812  0.32025316  0.82335701     0.06460
H34         H  0.32043556  0.14105720  0.82248730     0.06490
N35         N  0.17409515  0.22198640  0.84287470    -0.26490
N36         N  0.27490349  0.16737577  0.89540937    -0.26110
N37         N  0.26492875  0.32958271  0.84513951     0.00930
C38         C  0.12523713  0.24090822  0.92035005     0.42330
C39         C  0.35162337  0.28653163  0.91349966    -0.07360
N40         N  0.27618182  0.16850507  0.84395734    -0.26100
H41         H  0.31935073  0.14024326  0.91629856     0.06480
N42         N  0.14041884  0.27260686  0.90945512    -0.47330
H43         H  0.35623832  0.31714789  0.91694699     0.06460
C44         C  0.36336146  0.25645988  0.81420571     0.42160
C45         C  0.20795518  0.35047848  0.91148948    -0.06850
Co46       Co  0.29645181  0.30172937  0.87113567     0.73820
N47         N  0.35710225  0.22105588  0.91203573    -0.47040
C48         C  0.14031933  0.24187656  0.81180855     0.42430
N49         N  0.27963345  0.35282623  0.82870342    -0.47030
Co50       Co  0.30451298  0.20083199  0.87002774     0.73890
C51         C  0.29002293  0.14604154  0.82642368    -0.07360
C52         C  0.14498803  0.20697777  0.91039564    -0.06920
N53         N  0.22673588  0.32630054  0.84399430    -0.26450
N54         N  0.22313204  0.13943919  0.91123101    -0.47210
H55         H  0.15133550  0.17728538  0.81998262     0.06440
C56         C  0.34792257  0.28947630  0.82715482    -0.07340
Cl57       Cl  0.25034322  0.24725662  0.87033354    -0.50340
C58         C  0.37090872  0.25248193  0.92369819     0.42190
H59         H  0.18404329  0.35188299  0.82075129     0.06400
N60         N  0.35273389  0.22386459  0.82613367    -0.47050
C61         C  0.13393327  0.23971798  0.18869070     0.42040
N62         N  0.16712049  0.25700956  0.15833808     0.00930
C63         C  0.29028831  0.14180226  0.09184981    -0.06940
H64         H  0.32032981  0.14746431  0.18222558     0.06420
C65         C  0.34761455  0.28886240  0.17492652    -0.07300
Co66       Co  0.20265067  0.18965071  0.13344453     0.74180
N67         N  0.27521089  0.16925225  0.15941163    -0.26470
Co68       Co  0.30351114  0.20037401  0.13273405     0.74070
C69         C  0.36471424  0.25534366  0.18696841     0.42140
N70         N  0.25967828  0.32772999  0.15651629     0.00550
N71         N  0.33031093  0.23536618  0.15787763     0.00650
N72         N  0.22477189  0.13554343  0.09230262    -0.47320
H73         H  0.14641624  0.17481340  0.18228609     0.06410
N74         N  0.23701465  0.16522825  0.15968672     0.00940
N75         N  0.33099624  0.23372065  0.10619644     0.00680
C76         C  0.36992845  0.25325209  0.07876228     0.42280
N77         N  0.22155302  0.32321439  0.15668061    -0.25930
C78         C  0.14386123  0.20102865  0.09161176    -0.06850
N79         N  0.14483183  0.27062353  0.17548617    -0.47040
N80         N  0.35604050  0.22122859  0.09005316    -0.47260
C81         C  0.12506287  0.23470752  0.08068416     0.42060
N82         N  0.23674793  0.16147467  0.10800246     0.00930
N83         N  0.22128512  0.32213959  0.10547718    -0.25950
N84         N  0.17049967  0.21881624  0.15900452    -0.26440
N85         N  0.25954414  0.32625678  0.10504832     0.00570
H86         H  0.17513123  0.34875509  0.08583004     0.06460
H87         H  0.35590159  0.31762568  0.08577182     0.06490
N88         N  0.27498646  0.16561663  0.10802985    -0.26490
N89         N  0.32665506  0.27355917  0.15729852    -0.26110
N90         N  0.16533653  0.25468319  0.10690995     0.00930
C91         C  0.25592284  0.13477734  0.19071976     0.42330
C92         C  0.20651832  0.34360799  0.17455656    -0.07360
N93         N  0.32773052  0.27204952  0.10609671    -0.26100
H94         H  0.35086744  0.31957739  0.17862720     0.06480
N95         N  0.22441845  0.14407064  0.17775860    -0.47330
H96         H  0.17598533  0.34477603  0.17913190     0.06460
C97         C  0.23939555  0.36297766  0.07687597     0.42160
C98         C  0.15009419  0.20513256  0.17752356    -0.06850
Co99       Co  0.19328566  0.28969609  0.13172593     0.73820
N100        N  0.27198311  0.35110444  0.17345816    -0.47040
C101        C  0.25687683  0.12185807  0.08113485     0.42430
N102        N  0.14015138  0.26681199  0.09091568    -0.47030
Co103      Co  0.29386001  0.30058696  0.13115510     0.73890
C104        C  0.35141070  0.28699532  0.08942533    -0.07360
C105        C  0.28977122  0.15047699  0.17814993    -0.06920
N106        N  0.16822456  0.21635676  0.10768756    -0.26450
N107        N  0.35312562  0.22328705  0.17517222    -0.47210
H108        H  0.32112635  0.13766122  0.08955596     0.06440
C109        C  0.20594177  0.34440607  0.08848091    -0.07340
Cl110      Cl  0.24834536  0.24505366  0.13200098    -0.50380
C111        C  0.23998070  0.36244435  0.18549791     0.42190
H112        H  0.13902694  0.17031418  0.08857652     0.06400
N113        N  0.27154180  0.35074145  0.08838773    -0.47050
C114        C  0.11618987  0.00926424  0.68692241     0.42040
N115        N  0.08208706  0.48970026  0.65762038     0.00930
C116        C  0.46002767  0.10877471  0.59252018    -0.06940
H117        H  0.43302327  0.10555384  0.68293553     0.06420
C118        C  0.40412678  0.46015864  0.67637490    -0.07300
Co119      Co  0.04698800  0.05752058  0.63255154     0.74180
N120        N  0.47650945  0.08044125  0.65996000    -0.26470
Co121      Co  0.44675247  0.04980656  0.63398066     0.74070
C122        C  0.38933669  0.99308417  0.68977372     0.42140
N123        N  0.48741317  0.41976533  0.65610516     0.00550
N124        N  0.42076825  0.01422405  0.65945767     0.00650
N125        N  0.02584545  0.11265714  0.59204399    -0.47320
H126        H  0.10053823  0.07324027  0.68002627     0.06410
N127        N  0.01475382  0.08364675  0.65912674     0.00940
N128        N  0.41797690  0.01843471  0.60786791     0.00680
C129        C  0.38102805  0.00255813  0.57902560     0.42280
N130        N  0.02569471  0.42291326  0.65651330    -0.25930
C131        C  0.10226928  0.04470187  0.58944096    -0.06850
N132        N  0.10475750  0.47716868  0.67492153    -0.47040
N133        N  0.39393833  0.03295892  0.59187369    -0.47260
C134        C  0.12009211  0.01100676  0.57799453     0.42060
N135        N  0.01324967  0.08696321  0.60784176     0.00930
N136        N  0.02600617  0.42510122  0.60518735    -0.25950
N137        N  0.07857723  0.02790392  0.65760846    -0.26440
N138        N  0.48767768  0.42222646  0.60482073     0.00570
H139        H  0.07156344  0.39930374  0.58491056     0.06460
H140        H  0.39443942  0.43727475  0.58410778     0.06490
N141        N  0.47488745  0.08440238  0.60863917    -0.26490
N142        N  0.42345968  0.47602065  0.65812370    -0.26110
N143        N  0.08264970  0.49131424  0.60604015     0.00930
C144        C  0.49822964  0.11768744  0.68904779     0.42330
C145        C  0.03932038  0.39983867  0.67375626    -0.07360
N146        N  0.42129256  0.48018670  0.60655915    -0.26100
H147        H  0.40042420  0.42933889  0.67972243     0.06480
N148        N  0.02885871  0.10624811  0.67592399    -0.47330
H149        H  0.06971291  0.39532304  0.67781879     0.06460
C150        C  0.50706388  0.38319391  0.57734248     0.42160
C151        C  0.09850123  0.04270988  0.67564397    -0.06850
Co152      Co  0.05485191  0.45678505  0.63135324     0.73820
N153        N  0.47369799  0.39535152  0.67223524    -0.47040
C154        C  0.49393175  0.12803424  0.58178749     0.42430
N155        N  0.10694331  0.47900205  0.58947399    -0.47030
Co156      Co  0.45429112  0.44899898  0.63117733     0.73890
C157        C  0.39882265  0.46744117  0.58886963    -0.07360
C158        C  0.46328240  0.10122272  0.67831619    -0.06920
N159        N  0.07940760  0.02960118  0.60641040    -0.26450
N160        N  0.39973391  0.02561726  0.67779083    -0.47210
H161        H  0.42933952  0.11294838  0.58931244     0.06440
C162        C  0.04083686  0.40234246  0.58823548    -0.07340
Cl163      Cl  0.50072083  0.00325178  0.63204737    -0.50340
C164        C  0.50458101  0.38142217  0.68408567     0.42190
H165        H  0.10726661  0.07543839  0.58649317     0.06400
N166        N  0.47525205  0.39739191  0.58862387    -0.47050
C167        C  0.49591302  0.39079951  0.31382074     0.42040
N168        N  0.01521898  0.42235123  0.34428005     0.00930
C169        C  0.39949140  0.04297008  0.41224737    -0.06940
H170        H  0.39842946  0.07150827  0.32196828     0.06420
C171        C  0.03922534  0.10008903  0.32318955    -0.07300
Co172      Co  0.44837499  0.45661908  0.37065169     0.74180
N173        N  0.42335903  0.02735240  0.34445031    -0.26470
Co174      Co  0.45541475  0.05699448  0.36950442     0.74070
C175        C  0.50428909  0.11418990  0.31136979     0.42140
N176        N  0.08317221  0.01696910  0.34269734     0.00550
N177        N  0.48784506  0.08321335  0.34282329     0.00650
N178        N  0.39548677  0.47727981  0.41227322    -0.47320
H179        H  0.43155709  0.40366484  0.32222402     0.06410
N180        N  0.42047178  0.48909966  0.34483454     0.00940
N181        N  0.48893960  0.08629533  0.39438637     0.00680
C182        C  0.50704152  0.12601618  0.42146235     0.42280
N183        N  0.08011739  0.47872386  0.34350127    -0.25930
C184        C  0.46378578  0.40055129  0.41302734    -0.06850
N185        N  0.02780369  0.40146487  0.32618239    -0.47040
N186        N  0.47566952  0.11059304  0.41058743    -0.47260
C187        C  0.49818087  0.38275256  0.42363261     0.42060
N188        N  0.42061640  0.49006968  0.39622528     0.00930
N189        N  0.08212230  0.48021653  0.39481884    -0.25950
N190        N  0.47697997  0.42531085  0.34476566    -0.26440
N191        N  0.08483679  0.01859536  0.39432300     0.00570
H192        H  0.11049712  0.43625676  0.41557072     0.06460
H193        H  0.07202285  0.11314429  0.41422469     0.06490
N194        N  0.42324456  0.02841395  0.39570162    -0.26490
N195        N  0.02612099  0.08089615  0.34229647    -0.26110
N196        N  0.01623648  0.42190908  0.39596538     0.00930
C197        C  0.38654091  0.00663569  0.31516603     0.42330
C198        C  0.10042095  0.46364047  0.32561630    -0.07360
N199        N  0.02734469  0.08444453  0.39391384    -0.26100
H200        H  0.06946158  0.10417709  0.31832575     0.06480
N201        N  0.39790035  0.47546941  0.32786182    -0.47330
H202        H  0.10389453  0.43292337  0.32215887     0.06460
C203        C  0.12401092  0.00144040  0.42202195     0.42160
C204        C  0.46217662  0.40620639  0.32634161    -0.06850
Co205      Co  0.04900183  0.45009133  0.36979485     0.73820
N206        N  0.10538105  0.02928657  0.32492649    -0.47040
C207        C  0.38090241  0.00886981  0.42325536     0.42430
N208        N  0.02953447  0.39717815  0.41197836    -0.47030
Co209      Co  0.05613665  0.05091708  0.36840227     0.73890
C210        C  0.04150278  0.10832960  0.41059650    -0.07360
C211        C  0.40250130  0.04115193  0.32638311    -0.06920
N212        N  0.47786078  0.42424897  0.39612451    -0.26450
N213        N  0.47373482  0.10361167  0.32500693    -0.47210
H214        H  0.39431050  0.07362407  0.41504528     0.06440
C215        C  0.10564735  0.46669925  0.41178587    -0.07340
Cl216      Cl  0.50231070  0.00364787  0.37002426    -0.50340
C217        C  0.11681710  0.99714345  0.31310414     0.42190
H218        H  0.43327256  0.39530590  0.41671736     0.06400
N219        N  0.10956772  0.03231893  0.41016173    -0.47050
C220        C  0.99374524  0.27163822  0.50064255     0.00150
C221        C  0.99570293  0.23177209  0.50109644     0.00150
C222        C  0.23161215  0.50530075  0.50078901     0.00150
C223        C  0.27138166  0.50958347  0.50071285     0.00150
C224        C  0.99843954  0.25472599  0.25210741    -0.02900
C225        C  0.02712539  0.32123965  0.26549502    -0.09570
C226        C  0.99633147  0.29361875  0.26602477     0.06620
C227        C  0.46241816  0.30374158  0.27944491    -0.03340
C228        C  0.46227820  0.33717971  0.29328978    -0.07790
C229        C  0.49522163  0.36104136  0.29506706     0.05740
C230        C  0.02721554  0.35392974  0.28015839    -0.02810
Br231      Br  0.07147769  0.38822368  0.27845210    -0.02510
H232        H  0.05174195  0.31787488  0.25384490     0.09650
H233        H  0.43710293  0.34244968  0.30436202     0.07670
Br234      Br  0.41728197  0.27097806  0.28408408    -0.02940
C235        C  0.50101992  0.18135663  0.25857027    -0.09570
C236        C  0.99965096  0.21873157  0.26927561     0.06620
C237        C  0.00283245  0.21947335  0.29470547    -0.03340
C238        C  0.00312255  0.18473782  0.30747159    -0.07790
C239        C  0.50305749  0.14882862  0.29637646     0.05740
C240        C  0.50247412  0.14694823  0.27178184    -0.02810
Br241      Br  0.50336382  0.09802535  0.25561222    -0.02510
H242        H  0.50041384  0.17883644  0.23952753     0.09650
H243        H  0.00492938  0.18558134  0.32658772     0.07670
Br244      Br  0.01310477  0.26269762  0.31557819    -0.02940
C245        C  0.47320745  0.15135078  0.45681150    -0.09570
C246        C  0.50435099  0.15487462  0.44084612     0.06620
C247        C  0.03064650  0.18635309  0.44344317    -0.03340
C248        C  0.02635544  0.21228236  0.46238024    -0.07790
C249        C  0.99618972  0.20758374  0.47905523     0.05740
C250        C  0.46898839  0.17701745  0.47573054    -0.02810
Br251      Br  0.42427361  0.16932348  0.49571972    -0.02510
H252        H  0.45212628  0.12801583  0.45476276     0.09650
H253        H  0.04757554  0.23541120  0.46455695     0.07670
Br254      Br  0.07166301  0.19697437  0.42121759    -0.02940
C255        C  0.46686266  0.32636568  0.44429836    -0.09570
C256        C  0.49913820  0.35149485  0.44179745     0.06620
C257        C  0.03120716  0.34647188  0.45699068    -0.03340
C258        C  0.02942106  0.31855169  0.47496773    -0.07790
C259        C  0.99632711  0.29488685  0.47832412     0.05740
C260        C  0.46537230  0.29798299  0.46213940    -0.02810
Br261      Br  0.41985634  0.26549159  0.46365632    -0.02510
H262        H  0.44241055  0.32889313  0.43239618     0.09650
H263        H  0.05378205  0.31616091  0.48694253     0.07670
Br264      Br  0.07716732  0.37856668  0.45569363    -0.02940
C265        C  0.16657708  0.46822679  0.45144698    -0.09570
C266        C  0.15464233  0.00314148  0.44065603     0.06620
C267        C  0.17222039  0.03845739  0.44819938    -0.03340
C268        C  0.19985923  0.03803465  0.46633737    -0.07790
C269        C  0.20954637  0.50339310  0.47804006     0.05740
C270        C  0.19338488  0.46816897  0.46998264    -0.02810
Br271      Br  0.20655113  0.41903947  0.48380325    -0.02510
H272        H  0.15439466  0.44062759  0.44597348     0.09650
H273        H  0.21211014  0.06534377  0.47236470     0.07670
Br274      Br  0.15901842  0.08888850  0.43591326    -0.02940
C275        C  0.30223144  0.47514236  0.46682045    -0.09570
C276        C  0.29275398  0.51040057  0.47774152     0.06620
C277        C  0.30915711  0.04514573  0.46904851    -0.03340
C278        C  0.33663245  0.04400942  0.45080246    -0.07790
C279        C  0.34907723  0.00839421  0.44118975     0.05740
C280        C  0.33094340  0.47355192  0.44926683    -0.02810
Br281      Br  0.34541402  0.42226991  0.43909052    -0.02510
H282        H  0.28979074  0.44823545  0.47353671     0.09650
H283        H  0.34919842  0.07125813  0.44483779     0.07670
Br284      Br  0.29570996  0.09479105  0.48199959    -0.02940
C285        C  0.17742067  0.03624280  0.52265041    -0.09570
C286        C  0.20633476  0.50733309  0.52234225     0.06620
C287        C  0.20663828  0.47960414  0.54082231    -0.03340
C288        C  0.17855938  0.48160918  0.55889817    -0.07790
C289        C  0.14964789  0.01053188  0.55888436     0.05740
C290        C  0.14912745  0.03776657  0.54028566    -0.02810
Br291      Br  0.10840641  0.07519774  0.53602377    -0.02510
H292        H  0.17622688  0.05783781  0.50876772     0.09650
H293        H  0.17908142  0.46011981  0.57293756     0.07670
Br294      Br  0.24254118  0.43706273  0.54187202    -0.02940
C295        C  0.32927479  0.98273109  0.52153298    -0.09570
C296        C  0.29729211  0.50842845  0.52221681     0.06620
C297        C  0.29473581  0.53419574  0.54167710    -0.03340
C298        C  0.32184340  0.53153944  0.56021340    -0.07790
C299        C  0.35311044  0.00527997  0.55923411     0.05740
C300        C  0.35759809  0.98222521  0.53904196    -0.02810
Br301      Br  0.40441075  0.95358687  0.53259350    -0.02510
H302        H  0.33341418  0.96325218  0.50686730     0.09650
H303        H  0.31900414  0.55076348  0.57523840     0.07670
Br304      Br  0.25867548  0.57651590  0.54318997    -0.02940
C305        C  0.02746052  0.15850189  0.54758043    -0.09570
C306        C  0.49531457  0.15812357  0.56294127     0.06620
C307        C  0.46605413  0.18649405  0.55984965    -0.03340
C308        C  0.46768886  0.21178561  0.54039592    -0.07790
C309        C  0.99829512  0.20983019  0.52391796     0.05740
C310        C  0.02930615  0.18404443  0.52835313    -0.02810
Br311      Br  0.07565583  0.18311735  0.50932782    -0.02510
H312        H  0.05108071  0.13824905  0.55026364     0.09650
H313        H  0.44406272  0.23197456  0.53759930     0.07670
Br314      Br  0.42438463  0.19417402  0.58198470    -0.02940
C315        C  0.03201700  0.30102033  0.53361949    -0.09570
C316        C  0.99587228  0.29537288  0.52272908     0.06620
C317        C  0.46373257  0.31683288  0.53089753    -0.03340
C318        C  0.46847235  0.34455326  0.54869868    -0.07790
C319        C  0.50502216  0.35197469  0.55894454     0.05740
C320        C  0.03702504  0.32883339  0.55148316    -0.02810
Br321      Br  0.08841775  0.33171862  0.56444905    -0.02510
H322        H  0.05691260  0.28447741  0.52757830     0.09650
H323        H  0.44318457  0.36092059  0.55426688     0.07670
Br324      Br  0.41232441  0.30928945  0.51877357    -0.02940
C325        C  0.03121417  0.24135486  0.21137887    -0.09570
C326        C  0.03561846  0.25003578  0.23582419     0.06620
C327        C  0.07475914  0.24925135  0.24452986    -0.03340
C328        C  0.10638435  0.24566163  0.22894499    -0.07790
C329        C  0.10058177  0.24074970  0.20481300     0.05740
C330        C  0.06278445  0.23782646  0.19609675    -0.02810
Br331      Br  0.05268624  0.22915325  0.16317471    -0.02510
H332        H  0.00318226  0.23645532  0.20342399     0.09650
H333        H  0.13584012  0.24662591  0.23573223     0.07670
Br334      Br  0.08923009  0.25193431  0.27712502    -0.02940
C335        C  0.43239697  0.22584134  0.23674712    -0.09570
C336        C  0.46116459  0.25564470  0.23602354     0.06620
C337        C  0.45488430  0.28679916  0.21957534    -0.03340
C338        C  0.42270901  0.28646254  0.20461026    -0.07790
C339        C  0.39590506  0.25578405  0.20486462     0.05740
C340        C  0.40055543  0.22559012  0.22140995    -0.02810
Br341      Br  0.36319638  0.18416562  0.22492366    -0.02510
H342        H  0.43325692  0.20283976  0.24970426     0.09650
H343        H  0.41962940  0.30981028  0.19185818     0.07670
Br344      Br  0.49033059  0.32955862  0.21408226    -0.02940
C345        C  0.28001595  0.06262150  0.02590972    -0.09570
C346        C  0.24636254  0.03981471  0.02360382     0.06620
C347        C  0.21749469  0.04193568  0.04134173    -0.03340
C348        C  0.22181997  0.06870744  0.05986109    -0.07790
C349        C  0.25566619  0.09188545  0.06208158     0.05740
C350        C  0.28599514  0.08648640  0.04540179    -0.02810
Br351      Br  0.33744905  0.10762334  0.04759737    -0.02510
H352        H  0.30293580  0.06039188  0.01276413     0.09650
H353        H  0.19853936  0.07117257  0.07272736     0.07670
Br354      Br  0.17126525  0.01032604  0.04108950    -0.02940
C355        C  0.21349413  0.42478684  0.02334770    -0.09570
C356        C  0.24428519  0.45191896  0.02275091     0.06620
C357        C  0.27282125  0.45000386  0.04067659    -0.03340
C358        C  0.26994867  0.42134431  0.05828245    -0.07790
C359        C  0.23957015  0.39377000  0.05843520     0.05740
C360        C  0.21110873  0.39580021  0.04061687    -0.02810
Br361      Br  0.17070809  0.35773977  0.03674181    -0.02510
H362        H  0.19165173  0.42523445  0.00960374     0.09650
H363        H  0.29226424  0.42010959  0.07172331     0.07670
Br364      Br  0.31845558  0.48232594  0.04154104    -0.02940
C365        C  0.27720546  0.04077438  0.96501265    -0.09570
C366        C  0.24357796  0.04044594  0.97922522     0.06620
C367        C  0.21321249  0.06638202  0.97364866    -0.03340
C368        C  0.21754008  0.09297513  0.95507544    -0.07790
C369        C  0.25175464  0.09457576  0.94145992     0.05740
C370        C  0.28134354  0.06702341  0.94610503    -0.02810
Br371      Br  0.32691777  0.06134162  0.92675834    -0.02510
H372        H  0.30076694  0.02097042  0.96895243     0.09650
H373        H  0.19401649  0.11303317  0.95150239     0.07670
Br374      Br  0.16459836  0.06672503  0.99029195    -0.02940
C375        C  0.27658781  0.40360868  0.95439847    -0.09570
C376        C  0.24261609  0.40071131  0.94084159     0.06620
C377        C  0.21211847  0.42745381  0.94520359    -0.03340
C378        C  0.21500735  0.45374027  0.96405922    -0.07790
C379        C  0.24822523  0.45480588  0.97841798     0.05740
C380        C  0.27969567  0.43027742  0.97281316    -0.02810
Br381      Br  0.32820629  0.43193886  0.98926595    -0.02510
H382        H  0.30090627  0.38443361  0.95096299     0.09650
H383        H  0.19074226  0.47273670  0.96795859     0.07670
Br384      Br  0.16686857  0.43188252  0.92568053    -0.02940
C385        C  0.50995674  0.21956897  0.71213277    -0.09570
C386        C  0.50169559  0.21552037  0.73667804     0.06620
C387        C  0.49749964  0.17632931  0.74516165    -0.03340
C388        C  0.49542748  0.14508343  0.72934663    -0.07790
C389        C  0.49986787  0.15095352  0.70513653     0.05740
C390        C  0.50813677  0.18831266  0.69659152    -0.02810
Br391      Br  0.51650326  0.19846457  0.66356046    -0.02510
H392        H  0.51868544  0.24697197  0.70436848     0.09650
H393        H  0.49087769  0.11579875  0.73604221     0.07670
Br394      Br  0.49389116  0.16154887  0.77775506    -0.02940
C395        C  0.03312303  0.34808982  0.71885519    -0.09570
C396        C  0.50264236  0.35093999  0.70265497     0.06620
C397        C  0.47107174  0.32482072  0.70470355    -0.03340
C398        C  0.47152327  0.29582440  0.72193862    -0.07790
C399        C  0.50328816  0.29038328  0.73755006     0.05740
C400        C  0.03369127  0.31934189  0.73651887    -0.02810
Br401      Br  0.07486512  0.32819843  0.75895387    -0.02510
H402        H  0.05652800  0.36936221  0.71817170     0.09650
H403        H  0.44738875  0.27537916  0.72219114     0.07670
Br404      Br  0.42738305  0.32418852  0.68358106    -0.02940
C405        C  0.07284129  0.24024041  0.75946435    -0.09570
C406        C  0.03603617  0.24701991  0.77028450     0.06620
C407        C  0.03502196  0.24542311  0.79571248    -0.03340
C408        C  0.06972565  0.24475005  0.80833955    -0.07790
C409        C  0.10554493  0.24164541  0.79707897     0.05740
C410        C  0.10714951  0.23760655  0.77258013    -0.02810
Br411      Br  0.15569417  0.23095777  0.75628695    -0.02510
H412        H  0.07533602  0.23913124  0.74042105     0.09650
H413        H  0.06882961  0.24520051  0.82748864     0.07670
Br414      Br  0.99118646  0.23732850  0.81664881    -0.02940
C415        C  0.41863912  0.29011616  0.79488325    -0.09570
C416        C  0.39309503  0.25832067  0.79540540     0.06620
C417        C  0.39797733  0.22856486  0.77881113    -0.03340
C418        C  0.43061448  0.22889400  0.76398973    -0.07790
C419        C  0.46105669  0.25663136  0.76668973     0.05740
C420        C  0.45221033  0.28979359  0.78093145    -0.02810
Br421      Br  0.48595461  0.33365483  0.78596998    -0.02510
H422        H  0.41442362  0.31417927  0.80690521     0.09650
H423        H  0.43179839  0.20644229  0.75080171     0.07670
Br424      Br  0.36059035  0.18732609  0.77514399    -0.02940
C425        C  0.32250353  0.99156784  0.74289866    -0.09570
C426        C  0.28508944  0.99229041  0.73225018     0.06620
C427        C  0.28413018  0.98781901  0.70692708    -0.03340
C428        C  0.31874626  0.98875911  0.69398097    -0.07790
C429        C  0.35475686  0.99133966  0.70490253     0.05740
C430        C  0.35685679  0.99136131  0.72952157    -0.02810
Br431      Br  0.40593729  0.99258927  0.74549570    -0.02510
H432        H  0.32515748  0.99325924  0.76189673     0.09650
H433        H  0.31774815  0.98669222  0.67488180     0.07670
Br434      Br  0.24077976  0.97568080  0.68655917    -0.02940
C435        C  0.20737519  0.03368820  0.72094318    -0.09570
C436        C  0.21018460  0.00134574  0.73634744     0.06620
C437        C  0.17564781  0.47839345  0.73942532    -0.03340
C438        C  0.14555621  0.48138979  0.72291319    -0.07790
C439        C  0.14649685  0.00979689  0.70518095     0.05740
C440        C  0.17666341  0.03776484  0.70520610    -0.02810
Br441      Br  0.18270087  0.07798247  0.68175844    -0.02510
H442        H  0.23140870  0.05397204  0.71935578     0.09650
H443        H  0.12049137  0.46218782  0.72438189     0.07670
Br444      Br  0.16188903  0.44845060  0.76706180    -0.02940
C445        C  0.22271906  0.03897472  0.78226544    -0.09570
C446        C  0.25147025  0.03533103  0.76443243     0.06620
C447        C  0.27792155  0.06748243  0.76173771    -0.03340
C448        C  0.27932219  0.09667892  0.77905082    -0.07790
C449        C  0.25297218  0.09716583  0.79796750     0.05740
C450        C  0.22366195  0.06840047  0.79904700    -0.02810
Br451      Br  0.18567757  0.06469246  0.82402823    -0.02510
H452        H  0.20049413  0.01681126  0.78420987     0.09650
H453        H  0.30006618  0.12034345  0.77712079     0.07670
Br454      Br  0.30772687  0.07988630  0.73380152    -0.02940
C455        C  0.26407356  0.46484362  0.79003640    -0.09570
C456        C  0.25220223  0.46029109  0.76616964     0.06620
C457        C  0.24643889  0.42105702  0.75846516    -0.03340
C458        C  0.24514984  0.39042438  0.77487360    -0.07790
C459        C  0.25193552  0.39708145  0.79874939     0.05740
C460        C  0.26279876  0.43430080  0.80620981    -0.02810
Br461      Br  0.27472349  0.44548081  0.83860753    -0.02510
H462        H  0.27473859  0.49227767  0.79669752     0.09650
H463        H  0.23872211  0.36111599  0.76895288     0.07670
Br464      Br  0.23760380  0.40546421  0.72660940    -0.02940
C465        C  0.03770227  0.21786055  0.04031008    -0.09570
C466        C  0.04592097  0.24457921  0.02197762     0.06620
C467        C  0.08029812  0.26753559  0.02366531    -0.03340
C468        C  0.10546042  0.26286478  0.04268102    -0.07790
C469        C  0.09754602  0.23612713  0.06068359     0.05740
C470        C  0.06294612  0.21385628  0.05968101    -0.02810
Br471      Br  0.04746198  0.17996755  0.08502599    -0.02510
H472        H  0.01180994  0.19979818  0.03949244     0.09650
H473        H  0.13156017  0.28061703  0.04351668     0.07670
Br474      Br  0.09406864  0.30840204  0.00194531    -0.02940
C475        C  0.42366036  0.22647991  0.02291842    -0.09570
C476        C  0.45639728  0.25143305  0.02315316     0.06620
C477        C  0.46005309  0.27791500  0.04218211    -0.03340
C478        C  0.43218876  0.27763657  0.06051139    -0.07790
C479        C  0.39950361  0.25286144  0.05970356     0.05740
C480        C  0.39472843  0.22849382  0.04017369    -0.02810
Br481      Br  0.34589709  0.20361102  0.03381716    -0.02510
H482        H  0.41897618  0.20692317  0.00825457     0.09650
H483        H  0.43543813  0.29767495  0.07510538     0.07670
Br484      Br  0.49921557  0.31790714  0.04321119    -0.02940
C485        C  0.08958881  0.20857130  0.95341016    -0.09570
C486        C  0.09404028  0.24127347  0.93864730     0.06620
C487        C  0.06901987  0.27345042  0.94213801    -0.03340
C488        C  0.04264016  0.27335392  0.96109010    -0.07790
C489        C  0.04136818  0.24225258  0.97724777     0.05740
C490        C  0.06358987  0.20880964  0.97246480    -0.02810
Br491      Br  0.05911090  0.16236137  0.99121867    -0.02510
H492        H  0.10734032  0.18301195  0.95072654     0.09650
H493        H  0.02518872  0.29899970  0.96428086     0.07670
Br494      Br  0.06943997  0.31894900  0.92231911    -0.02940
C495        C  0.45274226  0.22065683  0.96520217    -0.09570
C496        C  0.45790614  0.25443279  0.97873168     0.06620
C497        C  0.43622976  0.28779391  0.97304651    -0.03340
C498        C  0.40877661  0.28652594  0.95492595    -0.07790
C499        C  0.40203536  0.25227414  0.94198632     0.05740
C500        C  0.42519648  0.21920393  0.94701378    -0.02810
Br501      Br  0.42107411  0.17082074  0.93029045    -0.02510
H502        H  0.46900560  0.19468160  0.96956509     0.09650
H503        H  0.39200543  0.31246747  0.95144859     0.07670
Br504      Br  0.44277660  0.33593125  0.98961887    -0.02940
C505        C  0.36058430  0.50628966  0.27461845    -0.09570
C506        C  0.35381526  0.00589235  0.29886012     0.06620
C507        C  0.31572517  0.00546814  0.30741066    -0.03340
C508        C  0.28484632  0.00344708  0.29170097    -0.07790
C509        C  0.29042126  0.99866594  0.26694600     0.05740
C510        C  0.32968545  0.50340745  0.25862191    -0.02810
Br511      Br  0.34569111  0.50422558  0.22618028    -0.02510
H512        H  0.39025728  0.50818862  0.26808197     0.09650
H513        H  0.25653574  0.00616357  0.29969258     0.07670
Br514      Br  0.30429533  0.00803848  0.34061809    -0.02940
C515        C  0.18659747  0.02296067  0.26294269    -0.09570
C516        C  0.21544238  0.99366025  0.26525823     0.06620
C517        C  0.20667802  0.46275527  0.28152801    -0.03340
C518        C  0.17410790  0.46452009  0.29617129    -0.07790
C519        C  0.14855109  0.99589780  0.29541622     0.05740
C520        C  0.15433012  0.02485235  0.27817040    -0.02810
Br521      Br  0.11821237  0.06673090  0.27389597    -0.02510
H522        H  0.18821891  0.04478026  0.24926211     0.09650
H523        H  0.16974987  0.44154042  0.30906674     0.07670
Br524      Br  0.23859244  0.41804349  0.28731719    -0.02940
C525        C  0.25697129  0.06756203  0.24370809    -0.09570
C526        C  0.25641081  0.03015308  0.23302101     0.06620
C527        C  0.25971877  0.02951827  0.20757779    -0.03340
C528        C  0.25835124  0.06418068  0.19475317    -0.07790
C529        C  0.25666612  0.10010832  0.20579919     0.05740
C530        C  0.25676554  0.10199856  0.23043089    -0.02810
Br531      Br  0.25592063  0.15092541  0.24658572    -0.02510
H532        H  0.25634895  0.06999952  0.26276408     0.09650
H533        H  0.26012771  0.06332694  0.17562922     0.07670
Br534      Br  0.27328641  0.98687512  0.18695244    -0.02940
C535        C  0.27343605  0.39373169  0.21883750    -0.09570
C536        C  0.24071296  0.39204467  0.20424549     0.06620
C537        C  0.21148750  0.42022924  0.20685818    -0.03340
C538        C  0.21698285  0.45069997  0.22262158    -0.07790
C539        C  0.25167413  0.45534478  0.23593011     0.05740
C540        C  0.27905847  0.42397437  0.23500177    -0.02810
Br541      Br  0.32303207  0.41508748  0.25529558    -0.02510
H542        H  0.29512692  0.37099305  0.21758325     0.09650
H543        H  0.19496091  0.47315508  0.22295787     0.07670
Br544      Br  0.16647201  0.42398354  0.18696728    -0.02940
C545        C  0.25435049  0.99397614  0.25016621    -0.02900
C546        C  0.48098859  0.75250641  0.00108260     0.00150
C547        C  0.02058324  0.74675356  0.00039750     0.00150
C548        C  0.24961294  0.99681436  0.74943277    -0.02900
C549        C  0.00077257  0.75251343  0.75331828    -0.02900
C550        C  0.24738886  0.97700413  0.00111601     0.00150
C551        C  0.24275764  0.51663866  0.00147294     0.00150
C552        C  0.24140314  0.86999215  0.92239306     0.42040
N553        N  0.26180304  0.82943728  0.89628836     0.00930
C554        C  0.15509708  0.70776865  0.82416261    -0.06940
H555        H  0.13978721  0.67632490  0.91359143     0.06420
C556        C  0.28885700  0.64388733  0.91231697    -0.07300
Co557      Co  0.19633056  0.79368639  0.86910222     0.74180
N558        N  0.16977174  0.72163509  0.89425758    -0.26470
Co559      Co  0.20405195  0.69297681  0.86933795     0.74070
C560        C  0.25442159  0.62475204  0.92257662     0.42140
N561        N  0.33195264  0.73398013  0.89618994     0.00550
N562        N  0.23650841  0.66457552  0.89532589     0.00650
N563        N  0.15050930  0.77323997  0.82472394    -0.47320
H564        H  0.17712379  0.85438138  0.91435914     0.06410
N565        N  0.16665822  0.75993376  0.89413880     0.00940
N566        N  0.23788017  0.66584480  0.84404741     0.00680
C567        C  0.25529884  0.62860213  0.81569878     0.42280
N568        N  0.32840945  0.77222919  0.89663725    -0.25930
C569        C  0.21410863  0.84774606  0.82573987    -0.06850
N570        N  0.27367238  0.85507016  0.91212939    -0.47040
N571        N  0.22433692  0.64240903  0.82755917    -0.47260
C572        C  0.24943968  0.86473092  0.81554592     0.42060
N573        N  0.17131964  0.76023321  0.84265138     0.00930
N574        N  0.32863045  0.77376049  0.84537500    -0.25950
N575        N  0.22348194  0.82659283  0.89533339    -0.26440
N576        N  0.33167236  0.73553861  0.84443309     0.00570
H577        H  0.35046846  0.82025313  0.82335726     0.06460
H578        H  0.32043524  0.64105688  0.82248705     0.06490
N579        N  0.17409518  0.72198614  0.84287478    -0.26490
N580        N  0.27490363  0.66737550  0.89540933    -0.26110
N581        N  0.26492897  0.82958245  0.84513958     0.00930
C582        C  0.12523735  0.74090815  0.92035018     0.42330
C583        C  0.35162346  0.78653125  0.91349970    -0.07360
N584        N  0.27618178  0.66850484  0.84395727    -0.26100
H585        H  0.31935091  0.64024298  0.91629848     0.06480
N586        N  0.14041897  0.77260676  0.90945518    -0.47330
H587        H  0.35623837  0.81714750  0.91694706     0.06460
C588        C  0.36336168  0.75645992  0.81420578     0.42160
C589        C  0.20795527  0.85047827  0.91148946    -0.06850
Co590      Co  0.29645193  0.80172907  0.87113574     0.73820
N591        N  0.35710246  0.72105550  0.91203567    -0.47040
C592        C  0.14031926  0.74187606  0.81180865     0.42430
N593        N  0.27963381  0.85282597  0.82870355    -0.47030
Co594      Co  0.30451308  0.70083171  0.87002768     0.73890
C595        C  0.29002267  0.64604129  0.82642354    -0.07360
C596        C  0.14498826  0.70697768  0.91039579    -0.06920
N597        N  0.22673609  0.82630035  0.84399429    -0.26450
N598        N  0.22313219  0.63943909  0.91123108    -0.47210
H599        H  0.15133547  0.67728496  0.81998285     0.06440
C600        C  0.34792283  0.78947624  0.82715497    -0.07340
Cl601      Cl  0.25034332  0.74725639  0.87033354    -0.50340
C602        C  0.37090888  0.75248154  0.92369817     0.42190
H603        H  0.18404371  0.85188302  0.82075122     0.06400
N604        N  0.35273403  0.72386453  0.82613362    -0.47050
C605        C  0.13393278  0.73971821  0.18869074     0.42040
N606        N  0.16712036  0.75700998  0.15833828     0.00930
C607        C  0.29028806  0.64180213  0.09185012    -0.06940
H608        H  0.32032909  0.64746421  0.18222603     0.06420
C609        C  0.34761483  0.78886256  0.17492648    -0.07300
Co610      Co  0.20265045  0.68965108  0.13344466     0.74180
N611        N  0.27521049  0.66925239  0.15941190    -0.26470
Co612      Co  0.30351099  0.70037397  0.13273429     0.74070
C613        C  0.36471439  0.75534391  0.18696850     0.42140
N614        N  0.25967870  0.82773007  0.15651635     0.00550
N615        N  0.33031094  0.73536621  0.15787782     0.00650
N616        N  0.22477161  0.63554361  0.09230280    -0.47320
H617        H  0.14641571  0.67481367  0.18228600     0.06410
N618        N  0.23701423  0.66522860  0.15968691     0.00940
N619        N  0.33099622  0.73372041  0.10619659     0.00680
C620        C  0.36992836  0.75325165  0.07876233     0.42280
N621        N  0.22155341  0.82321464  0.15668081    -0.25930
C622        C  0.14386127  0.70102920  0.09161182    -0.06850
N623        N  0.14483151  0.77062386  0.17548632    -0.47040
N624        N  0.35604041  0.72122822  0.09005331    -0.47260
C625        C  0.12506295  0.73470810  0.08068423     0.42060
N626        N  0.23674769  0.66147484  0.10800265     0.00930
N627        N  0.22128529  0.82213987  0.10547735    -0.25950
N628        N  0.17049944  0.71881665  0.15900464    -0.26440
N629        N  0.25954433  0.82625685  0.10504839     0.00570
H630        H  0.17513144  0.84875556  0.08583024     0.06460
H631        H  0.35590160  0.81762529  0.08577176     0.06490
N632        N  0.27498623  0.66561661  0.10803011    -0.26490
N633        N  0.32665524  0.77355921  0.15729856    -0.26110
N634        N  0.16533650  0.75468368  0.10691012     0.00930
C635        C  0.25592194  0.63477768  0.19072005     0.42330
C636        C  0.20651906  0.84360820  0.17455691    -0.07360
N637        N  0.32773053  0.77204928  0.10609676    -0.26100
H638        H  0.35086782  0.81957758  0.17862704     0.06480
N639        N  0.22441774  0.64407118  0.17775878    -0.47330
H640        H  0.17598614  0.84477633  0.17913241     0.06460
C641        C  0.23939578  0.86297780  0.07687606     0.42160
C642        C  0.15009377  0.70513287  0.17752357    -0.06850
Co643      Co  0.19328575  0.78969648  0.13172613     0.73820
N644        N  0.27198387  0.85110429  0.17345822    -0.47040
C645        C  0.25687655  0.62185807  0.08113511     0.42430
N646        N  0.14015141  0.76681254  0.09091583    -0.47030
Co647      Co  0.29386019  0.80058693  0.13115514     0.73890
C648        C  0.35141067  0.78699495  0.08942533    -0.07360
C649        C  0.28977055  0.65047707  0.17815028    -0.06920
N650        N  0.16822452  0.71635724  0.10768768    -0.26450
N651        N  0.35312562  0.72328718  0.17517245    -0.47210
H652        H  0.32112609  0.63766096  0.08955634     0.06440
C653        C  0.20594197  0.84440641  0.08848108    -0.07340
Cl654      Cl  0.24834533  0.74505383  0.13200114    -0.50380
C655        C  0.23998172  0.86244428  0.18549817     0.42190
H656        H  0.13902700  0.67031473  0.08857653     0.06400
N657        N  0.27154202  0.85074143  0.08838776    -0.47050
C658        C  0.11618634  0.50926430  0.68692299     0.42040
N659        N  0.08209006  0.98970015  0.65762005     0.00930
C660        C  0.46002552  0.60877510  0.59252008    -0.06940
H661        H  0.43302026  0.60555399  0.68293539     0.06420
C662        C  0.40413028  0.96015890  0.67637578    -0.07300
Co663      Co  0.04698534  0.55752072  0.63255174     0.74180
N664        N  0.47650653  0.58044129  0.65995997    -0.26470
Co665      Co  0.44674981  0.54980677  0.63398046     0.74070
C666        C  0.38933304  0.49308378  0.68977287     0.42140
N667        N  0.48741604  0.91976540  0.65610552     0.00550
N668        N  0.42076529  0.51422401  0.65945721     0.00650
N669        N  0.02584331  0.61265736  0.59204409    -0.47320
H670        H  0.10053466  0.57324029  0.68002686     0.06410
N671        N  0.01475090  0.58364673  0.65912680     0.00940
N672        N  0.41797438  0.51843526  0.60786761     0.00680
C673        C  0.38102531  0.50255938  0.57902534     0.42280
N674        N  0.02569761  0.92291305  0.65651347    -0.25930
C675        C  0.10226732  0.54470219  0.58944154    -0.06850
N676        N  0.10476074  0.97716859  0.67492109    -0.47040
N677        N  0.39393564  0.53295985  0.59187364    -0.47260
C678        C  0.12009019  0.51100710  0.57799512     0.42060
N679        N  0.01324732  0.58696347  0.60784183     0.00930
N680        N  0.02600835  0.92510086  0.60518746    -0.25950
N681        N  0.07857416  0.52790401  0.65760883    -0.26440
N682        N  0.48767984  0.92222612  0.60482114     0.00570
H683        H  0.07156515  0.89930346  0.58491020     0.06460
H684        H  0.39444179  0.93727359  0.58410893     0.06490
N685        N  0.47488509  0.58440273  0.60863912    -0.26490
N686        N  0.42346272  0.97602069  0.65812433    -0.26110
N687        N  0.08265202  0.99131396  0.60603983     0.00930
C688        C  0.49822665  0.61768735  0.68904783     0.42330
C689        C  0.03932324  0.89983824  0.67375637    -0.07360
N690        N  0.42129498  0.98018613  0.60655976    -0.26100
H691        H  0.40042784  0.92933919  0.67972349     0.06480
N692        N  0.02885575  0.60624796  0.67592411    -0.47330
H693        H  0.06971577  0.89532230  0.67781879     0.06460
C694        C  0.50706539  0.88319370  0.57734267     0.42160
C695        C  0.09849779  0.54270993  0.67564450    -0.06850
Co696      Co  0.05485454  0.95678480  0.63135315     0.73820
N697        N  0.47370083  0.89535166  0.67223560    -0.47040
C698        C  0.49392973  0.62803454  0.58178748     0.42430
N699        N  0.10694547  0.97900175  0.58947357    -0.47030
Co700      Co  0.45429376  0.94899881  0.63117786     0.73890
C701        C  0.39882509  0.96744017  0.58887037    -0.07360
C702        C  0.46327941  0.60122277  0.67831614    -0.06920
N703        N  0.07940533  0.52960144  0.60641079    -0.26450
N704        N  0.39973059  0.52561703  0.67779025    -0.47210
H705        H  0.42933741  0.61294884  0.58931221     0.06440
C706        C  0.04083865  0.90234215  0.58823542    -0.07340
Cl707      Cl  0.50071817  0.50325196  0.63204725    -0.50340
C708        C  0.50458378  0.88142196  0.68408588     0.42190
H709        H  0.10726478  0.57543872  0.58649389     0.06400
N710        N  0.47525383  0.89739168  0.58862432    -0.47050
C711        C  0.49591605  0.89079926  0.31382134     0.42040
N712        N  0.01522234  0.92235159  0.34428038     0.00930
C713        C  0.39948822  0.54296865  0.41224769    -0.06940
H714        H  0.39842496  0.57150790  0.32196919     0.06420
C715        C  0.03922133  0.60008838  0.32318972    -0.07300
Co716      Co  0.44837840  0.95662009  0.37065178     0.74180
N717        N  0.42335521  0.52735171  0.34445069    -0.26470
Co718      Co  0.45541113  0.55699362  0.36950477     0.74070
C719        C  0.50428505  0.61418942  0.31137012     0.42140
N720        N  0.08316848  0.51696876  0.34269717     0.00550
N721        N  0.48784116  0.58321284  0.34282362     0.00650
N722        N  0.39549026  0.97728123  0.41227327    -0.47320
H723        H  0.43156026  0.90366524  0.32222459     0.06410
N724        N  0.42047551  0.98910038  0.34483436     0.00940
N725        N  0.48893607  0.58629440  0.39438673     0.00680
C726        C  0.50703828  0.62601543  0.42146258     0.42280
N727        N  0.08012101  0.97872420  0.34350150    -0.25930
C728        C  0.46378856  0.90055273  0.41302759    -0.06850
N729        N  0.02780688  0.90146471  0.32618287    -0.47040
N730        N  0.47566616  0.61059219  0.41058781    -0.47260
C731        C  0.49818338  0.88275367  0.42363295     0.42060
N732        N  0.42061973  0.99007098  0.39622519     0.00930
N733        N  0.08212576  0.98021724  0.39481900    -0.25950
N734        N  0.47698333  0.92531144  0.34476598    -0.26440
N735        N  0.08483320  0.51859464  0.39432286     0.00570
H736        H  0.11050094  0.93625735  0.41557058     0.06460
H737        H  0.07201950  0.61314359  0.41422458     0.06490
N738        N  0.42324132  0.52841265  0.39570190    -0.26490
N739        N  0.02611707  0.58089555  0.34229666    -0.26110
N740        N  0.01623959  0.92191002  0.39596574     0.00930
C741        C  0.38653639  0.50663541  0.31516668     0.42330
C742        C  0.10042473  0.96364067  0.32561663    -0.07360
N743        N  0.02734115  0.58444367  0.39391401    -0.26100
H744        H  0.06945754  0.60417635  0.31832583     0.06480
N745        N  0.39790448  0.97546991  0.32786150    -0.47330
H746        H  0.10389829  0.93292356  0.32215926     0.06460
C747        C  0.12400673  0.50143987  0.42202216     0.42160
C748        C  0.46217982  0.90620670  0.32634210    -0.06850
Co749      Co  0.04900522  0.95009191  0.36979511     0.73820
N750        N  0.10537713  0.52928636  0.32492626    -0.47040
C751        C  0.38089910  0.50886831  0.42325548     0.42430
N752        N  0.02953724  0.89717896  0.41197877    -0.47030
Co753      Co  0.05613294  0.55091643  0.36840227     0.73890
C754        C  0.04149940  0.60832881  0.41059659    -0.07360
C755        C  0.40249701  0.54115150  0.32638378    -0.06920
N756        N  0.47786389  0.92425021  0.39612478    -0.26450
N757        N  0.47373083  0.60361130  0.32500733    -0.47210
H758        H  0.39430743  0.57362263  0.41504571     0.06440
C759        C  0.10565110  0.96669987  0.41178585    -0.07340
Cl760      Cl  0.50230714  0.50364708  0.37002426    -0.50340
C761        C  0.11681313  0.49714331  0.31310380     0.42190
H762        H  0.43327526  0.89530759  0.41671750     0.06400
N763        N  0.10956371  0.53231830  0.41016178    -0.47050
C764        C  0.99374511  0.77163860  0.50064250     0.00150
C765        C  0.99570173  0.73177238  0.50109635     0.00150
C766        C  0.23161556  0.00530050  0.50078909     0.00150
C767        C  0.27138496  0.00958388  0.50071317     0.00150
C768        C  0.99843932  0.75472571  0.25210780    -0.02900
C769        C  0.02712690  0.82123857  0.26549559    -0.09570
C770        C  0.99633219  0.79361851  0.26602521     0.06620
C771        C  0.46241915  0.80374216  0.27944536    -0.03340
C772        C  0.46228011  0.83718018  0.29329033    -0.07790
C773        C  0.49522419  0.86104093  0.29506775     0.05740
C774        C  0.02721801  0.85392847  0.28015914    -0.02810
Br775      Br  0.07148134  0.88822092  0.27845318    -0.02510
H776        H  0.05174340  0.81787327  0.25384550     0.09650
H777        H  0.43710491  0.84245074  0.30436252     0.07670
Br778      Br  0.41728198  0.77097992  0.28408435    -0.02940
C779        C  0.50101833  0.68135629  0.25857064    -0.09570
C780        C  0.99965004  0.71873125  0.26927598     0.06620
C781        C  0.00283099  0.71947290  0.29470585    -0.03340
C782        C  0.00311959  0.68473736  0.30747197    -0.07790
C783        C  0.50305376  0.64882818  0.29637683     0.05740
C784        C  0.50247115  0.64694783  0.27178220    -0.02810
Br785      Br  0.50335996  0.59802493  0.25561258    -0.02510
H786        H  0.50041266  0.67883617  0.23952789     0.09650
H787        H  0.00492611  0.68558079  0.32658811     0.07670
Br788      Br  0.01310477  0.76269680  0.31557860    -0.02940
C789        C  0.47320448  0.65135125  0.45681157    -0.09570
C790        C  0.50434806  0.65487434  0.44084615     0.06620
C791        C  0.03064406  0.68635246  0.44344304    -0.03340
C792        C  0.02635356  0.71228195  0.46238005    -0.07790
C793        C  0.99618787  0.70758399  0.47905512     0.05740
C794        C  0.46898591  0.67701822  0.47573052    -0.02810
Br795      Br  0.42427094  0.66932541  0.49571969    -0.02510
H796        H  0.45212289  0.62801664  0.45476294     0.09650
H797        H  0.04757409  0.73541042  0.46455667     0.07670
Br798      Br  0.07166052  0.69697309  0.42121731    -0.02940
C799        C  0.46686400  0.82636716  0.44429844    -0.09570
C800        C  0.49914010  0.85149565  0.44179764     0.06620
C801        C  0.03120896  0.84647174  0.45699084    -0.03340
C802        C  0.02942218  0.81855138  0.47496779    -0.07790
C803        C  0.99632766  0.79488728  0.47832410     0.05740
C804        C  0.46537294  0.79798433  0.46213937    -0.02810
Br805      Br  0.41985623  0.76549398  0.46365614    -0.02510
H806        H  0.44241196  0.82889527  0.43239626     0.09650
H807        H  0.05378311  0.81615989  0.48694258     0.07670
Br808      Br  0.07716989  0.87856544  0.45569385    -0.02940
C809        C  0.16657900  0.96822708  0.45144779    -0.09570
C810        C  0.15463796  0.50314129  0.44065632     0.06620
C811        C  0.17221358  0.53845774  0.44820078    -0.03340
C812        C  0.19985305  0.53803525  0.46633838    -0.07790
C813        C  0.20955017  0.00339272  0.47804005     0.05740
C814        C  0.19338664  0.96816898  0.46998351    -0.02810
Br815      Br  0.20655001  0.91903961  0.48380534    -0.02510
H816        H  0.15439475  0.94062821  0.44597514     0.09650
H817        H  0.21210237  0.56534468  0.47236632     0.07670
Br818      Br  0.15900667  0.58888924  0.43591724    -0.02940
C819        C  0.30223353  0.97514415  0.46681977    -0.09570
C820        C  0.29275816  0.01040185  0.47774211     0.06620
C821        C  0.30915036  0.54514462  0.46904648    -0.03340
C822        C  0.33662572  0.54400816  0.45080045    -0.07790
C823        C  0.34907343  0.50839266  0.44118950     0.05740
C824        C  0.33094471  0.97355381  0.44926564    -0.02810
Br825      Br  0.34540958  0.92227214  0.43908573    -0.02510
H826        H  0.28979086  0.94823735  0.47353486     0.09650
H827        H  0.34918956  0.57125711  0.44483456     0.07670
Br828      Br  0.29570007  0.59479034  0.48199584    -0.02940
C829        C  0.17741796  0.53624336  0.52265083    -0.09570
C830        C  0.20633784  0.00733289  0.52234224     0.06620
C831        C  0.20664130  0.97960427  0.54082250    -0.03340
C832        C  0.17856205  0.98160934  0.55889817    -0.07790
C833        C  0.14964562  0.51053215  0.55888477     0.05740
C834        C  0.14912520  0.53776723  0.54028630    -0.02810
Br835      Br  0.10840490  0.57519937  0.53602495    -0.02510
H836        H  0.17622427  0.55783888  0.50876848     0.09650
H837        H  0.17908408  0.96012023  0.57293771     0.07670
Br838      Br  0.24254425  0.93706293  0.54187279    -0.02940
C839        C  0.32927440  0.48273428  0.52153196    -0.09570
C840        C  0.29729461  0.00842775  0.52221726     0.06620
C841        C  0.29473971  0.03419620  0.54167698    -0.03340
C842        C  0.32184756  0.03153983  0.56021310    -0.07790
C843        C  0.35310796  0.50528169  0.55923379     0.05740
C844        C  0.35759780  0.48222944  0.53904086    -0.02810
Br845      Br  0.40441363  0.45359677  0.53259149    -0.02510
H846        H  0.33341566  0.46325654  0.50686597     0.09650
H847        H  0.31900962  0.05076517  0.57523758     0.07670
Br848      Br  0.25867989  0.07651686  0.54318946    -0.02940
C849        C  0.02745868  0.65850190  0.54758035    -0.09570
C850        C  0.49531277  0.65812384  0.56294122     0.06620
C851        C  0.46605255  0.68649455  0.55984959    -0.03340
C852        C  0.46768746  0.71178611  0.54039585    -0.07790
C853        C  0.99829367  0.70983040  0.52391786     0.05740
C854        C  0.02930448  0.68404438  0.52835302    -0.02810
Br855      Br  0.07565407  0.68311687  0.50932764    -0.02510
H856        H  0.05107872  0.63824890  0.55026359     0.09650
H857        H  0.44406152  0.73197530  0.53759926     0.07670
Br858      Br  0.42438313  0.69417478  0.58198466    -0.02940
C859        C  0.03201736  0.80102014  0.53361942    -0.09570
C860        C  0.99587252  0.79537312  0.52272906     0.06620
C861        C  0.46373308  0.81683345  0.53089763    -0.03340
C862        C  0.46847326  0.84455368  0.54869883    -0.07790
C863        C  0.50502320  0.85197465  0.55894464     0.05740
C864        C  0.03702579  0.82883307  0.55148313    -0.02810
Br865      Br  0.08841857  0.83171772  0.56444897    -0.02510
H866        H  0.05691275  0.78447696  0.52757817     0.09650
H867        H  0.44318568  0.86092124  0.55426713     0.07670
Br868      Br  0.41232477  0.80929069  0.51877374    -0.02940
C869        C  0.03121367  0.74135499  0.21137907    -0.09570
C870        C  0.03561811  0.75003497  0.23582450     0.06620
C871        C  0.07475879  0.74924961  0.24453013    -0.03340
C872        C  0.10638394  0.74566030  0.22894517    -0.07790
C873        C  0.10058128  0.74074972  0.20481308     0.05740
C874        C  0.06278389  0.73782709  0.19609684    -0.02810
Br875      Br  0.05268553  0.72915532  0.16317468    -0.02510
H876        H  0.00318169  0.73645598  0.20342417     0.09650
H877        H  0.13583973  0.74662389  0.23573242     0.07670
Br878      Br  0.08922976  0.75193091  0.27712534    -0.02940
C879        C  0.43239625  0.72584187  0.23674767    -0.09570
C880        C  0.46116422  0.75564491  0.23602403     0.06620
C881        C  0.45488415  0.78679943  0.21957585    -0.03340
C882        C  0.42270903  0.78646284  0.20461059    -0.07790
C883        C  0.39590497  0.75578442  0.20486487     0.05740
C884        C  0.40055488  0.72559070  0.22141038    -0.02810
Br885      Br  0.36319539  0.68416659  0.22492418    -0.02510
H886        H  0.43325579  0.70284046  0.24970494     0.09650
H887        H  0.41962966  0.80981053  0.19185846     0.07670
Br888      Br  0.49033055  0.82955889  0.21408305    -0.02940
C889        C  0.28001578  0.56262153  0.02590996    -0.09570
C890        C  0.24636234  0.53981480  0.02360399     0.06620
C891        C  0.21749441  0.54193582  0.04134185    -0.03340
C892        C  0.22181964  0.56870756  0.05986123    -0.07790
C893        C  0.25566591  0.59188547  0.06208182     0.05740
C894        C  0.28599494  0.58648634  0.04540208    -0.02810
Br895      Br  0.33744895  0.60762298  0.04759783    -0.02510
H896        H  0.30293569  0.56039188  0.01276442     0.09650
H897        H  0.19853896  0.57117273  0.07272746     0.07670
Br898      Br  0.17126494  0.51032622  0.04108954    -0.02940
C899        C  0.21349439  0.92478677  0.02334769    -0.09570
C900        C  0.24428546  0.95191887  0.02275084     0.06620
C901        C  0.27282155  0.95000383  0.04067650    -0.03340
C902        C  0.26994898  0.92134433  0.05828241    -0.07790
C903        C  0.23957042  0.89377006  0.05843522     0.05740
C904        C  0.21110899  0.89580023  0.04061691    -0.02810
Br905      Br  0.17070828  0.85773984  0.03674195    -0.02510
H906        H  0.19165197  0.92523435  0.00960374     0.09650
H907        H  0.29226457  0.92010965  0.07172326     0.07670
Br908      Br  0.31845585  0.98232594  0.04154089    -0.02940
C909        C  0.27720551  0.54077446  0.96501285    -0.09570
C910        C  0.24357796  0.54044610  0.97922538     0.06620
C911        C  0.21321254  0.56638220  0.97364876    -0.03340
C912        C  0.21754020  0.59297523  0.95507552    -0.07790
C913        C  0.25175478  0.59457575  0.94146001     0.05740
C914        C  0.28134366  0.56702341  0.94610519    -0.02810
Br915      Br  0.32691794  0.56134149  0.92675856    -0.02510
H916        H  0.30076695  0.52097049  0.96895268     0.09650
H917        H  0.19401664  0.61303327  0.95150242     0.07670
Br918      Br  0.16459837  0.56672532  0.99029202    -0.02940
C919        C  0.27658793  0.90360847  0.95439842    -0.09570
C920        C  0.24261619  0.90071107  0.94084157     0.06620
C921        C  0.21211857  0.92745357  0.94520357    -0.03340
C922        C  0.21500748  0.95374006  0.96405918    -0.07790
C923        C  0.24822539  0.95480571  0.97841791     0.05740
C924        C  0.27969583  0.93027726  0.97281308    -0.02810
Br925      Br  0.32820649  0.93193877  0.98926583    -0.02510
H926        H  0.30090640  0.88443340  0.95096294     0.09650
H927        H  0.19074239  0.97273649  0.96795855     0.07670
Br928      Br  0.16686863  0.93188224  0.92568054    -0.02940
C929        C  0.50995573  0.71956859  0.71213276    -0.09570
C930        C  0.50169508  0.71552005  0.73667808     0.06620
C931        C  0.49749858  0.67632904  0.74516170    -0.03340
C932        C  0.49542540  0.64508327  0.72934666    -0.07790
C933        C  0.49986513  0.65095340  0.70513653     0.05740
C934        C  0.50813453  0.68831241  0.69659148    -0.02810
Br935      Br  0.51650013  0.69846431  0.66356034    -0.02510
H936        H  0.51868487  0.74697143  0.70436844     0.09650
H937        H  0.49087534  0.61579863  0.73604225     0.07670
Br938      Br  0.49389043  0.66154856  0.77775510    -0.02940
C939        C  0.03312516  0.84808890  0.71885537    -0.09570
C940        C  0.50264467  0.85093963  0.70265508     0.06620
C941        C  0.47107349  0.82482099  0.70470362    -0.03340
C942        C  0.47152425  0.79582477  0.72193875    -0.07790
C943        C  0.50328896  0.79038298  0.73755022     0.05740
C944        C  0.03369263  0.81934104  0.73651911    -0.02810
Br945      Br  0.07486618  0.82819710  0.75895437    -0.02510
H946        H  0.05653052  0.86936086  0.71817192     0.09650
H947        H  0.44738931  0.77538003  0.72219124     0.07670
Br948      Br  0.42738495  0.82418942  0.68358099    -0.02940
C949        C  0.07284118  0.74023901  0.75946448    -0.09570
C950        C  0.03603614  0.74701903  0.77028459     0.06620
C951        C  0.03502190  0.74542254  0.79571258    -0.03340
C952        C  0.06972558  0.74474965  0.80833965    -0.07790
C953        C  0.10554485  0.74164471  0.79707908     0.05740
C954        C  0.10714938  0.73760516  0.77258028    -0.02810
Br955      Br  0.15569397  0.73095558  0.75628715    -0.02510
H956        H  0.07533588  0.73912949  0.74042119     0.09650
H957        H  0.06882954  0.74520046  0.82748873     0.07670
Br958      Br  0.99118635  0.73732806  0.81664887    -0.02940
C959        C  0.41863947  0.79011618  0.79488340    -0.09570
C960        C  0.39309517  0.75832084  0.79540544     0.06620
C961        C  0.39797712  0.72856526  0.77881100    -0.03340
C962        C  0.43061422  0.72889435  0.76398957    -0.07790
C963        C  0.46105673  0.75663137  0.76668973     0.05740
C964        C  0.45221064  0.78979353  0.78093156    -0.02810
Br965      Br  0.48595524  0.83365453  0.78597010    -0.02510
H966        H  0.41442418  0.81417917  0.80690548     0.09650
H967        H  0.43179782  0.70644286  0.75080142     0.07670
Br968      Br  0.36058973  0.68732690  0.77514365    -0.02940
C969        C  0.32250068  0.49156777  0.74289808    -0.09570
C970        C  0.28508643  0.49229036  0.73224983     0.06620
C971        C  0.28412673  0.48781882  0.70692675    -0.03340
C972        C  0.31874262  0.48875869  0.69398043    -0.07790
C973        C  0.35475339  0.49133923  0.70490179     0.05740
C974        C  0.35685371  0.49136106  0.72952081    -0.02810
Br975      Br  0.40593447  0.49258903  0.74549465    -0.02510
H976        H  0.32515498  0.49325930  0.76189612     0.09650
H977        H  0.31774421  0.48669171  0.67488127     0.07670
Br978      Br  0.24077586  0.47568080  0.68655914    -0.02940
C979        C  0.20737204  0.53368836  0.72094338    -0.09570
C980        C  0.21018167  0.50134591  0.73634763     0.06620
C981        C  0.17565073  0.97839320  0.73942490    -0.03340
C982        C  0.14555938  0.98138958  0.72291263    -0.07790
C983        C  0.14649346  0.50979704  0.70518147     0.05740
C984        C  0.17666001  0.53776502  0.70520648    -0.02810
Br985      Br  0.18269716  0.57798274  0.68175884    -0.02510
H986        H  0.23140554  0.55397218  0.71935583     0.09650
H987        H  0.12049452  0.96218761  0.72438119     0.07670
Br988      Br  0.16189147  0.94845027  0.76706127    -0.02940
C989        C  0.22271741  0.53897483  0.78226560    -0.09570
C990        C  0.25146807  0.53533111  0.76443229     0.06620
C991        C  0.27791945  0.56748240  0.76173735    -0.03340
C992        C  0.27932075  0.59667880  0.77905050    -0.07790
C993        C  0.25297132  0.59716568  0.79796748     0.05740
C994        C  0.22366100  0.56840042  0.79904724    -0.02810
Br995      Br  0.18567747  0.56469230  0.82402894    -0.02510
H996        H  0.20049246  0.51681144  0.78421022     0.09650
H997        H  0.30006477  0.62034329  0.77712028     0.07670
Br998      Br  0.30772397  0.57988625  0.73380084    -0.02940
C999        C  0.26407498  0.96484352  0.79003669    -0.09570
C1000       C  0.25220456  0.96029099  0.76616976     0.06620
C1001       C  0.24644151  0.92105693  0.75846520    -0.03340
C1002       C  0.24515178  0.89042429  0.77487363    -0.07790
C1003       C  0.25193638  0.89708137  0.79874953     0.05740
C1004       C  0.26279939  0.93430072  0.80621010    -0.02810
Br1005     Br  0.27472283  0.94548067  0.83860799    -0.02510
H1006       H  0.27473979  0.99227756  0.79669795     0.09650
H1007       H  0.23872434  0.86111588  0.76895280     0.07670
Br1008     Br  0.23760767  0.90546411  0.72660932    -0.02940
C1009       C  0.03770252  0.71786046  0.04031011    -0.09570
C1010       C  0.04592082  0.74457949  0.02197779     0.06620
C1011       C  0.08029749  0.76753651  0.02366564    -0.03340
C1012       C  0.10545984  0.76286589  0.04268134    -0.07790
C1013       C  0.09754596  0.73612773  0.06068373     0.05740
C1014       C  0.06294644  0.71385628  0.05968101    -0.02810
Br1015     Br  0.04746291  0.67996674  0.08502572    -0.02510
H1016       H  0.01181049  0.69979768  0.03949234     0.09650
H1017       H  0.13155926  0.78061860  0.04351711     0.07670
Br1018     Br  0.09406706  0.80840359  0.00194584    -0.02940
C1019       C  0.42366041  0.72647952  0.02291848    -0.09570
C1020       C  0.45639726  0.75143274  0.02315323     0.06620
C1021       C  0.46005298  0.77791470  0.04218219    -0.03340
C1022       C  0.43218867  0.77763615  0.06051148    -0.07790
C1023       C  0.39950358  0.75286094  0.05970365     0.05740
C1024       C  0.39472847  0.72849333  0.04017376    -0.02810
Br1025     Br  0.34589718  0.70361045  0.03381721    -0.02510
H1026       H  0.41897628  0.70692279  0.00825462     0.09650
H1027       H  0.43543797  0.79767456  0.07510545     0.07670
Br1028     Br  0.49921523  0.81790706  0.04321127    -0.02940
C1029       C  0.08958937  0.70857143  0.95341050    -0.09570
C1030       C  0.09404058  0.74127343  0.93864749     0.06620
C1031       C  0.06901995  0.77345025  0.94213808    -0.03340
C1032       C  0.04264025  0.77335379  0.96109018    -0.07790
C1033       C  0.04136839  0.74225258  0.97724795     0.05740
C1034       C  0.06359039  0.70880977  0.97246513    -0.02810
Br1035     Br  0.05911177  0.66236162  0.99121914    -0.02510
H1036       H  0.10734108  0.68301218  0.95072699     0.09650
H1037       H  0.02518860  0.79899947  0.96428082     0.07670
Br1038     Br  0.06943963  0.81894851  0.92231892    -0.02940
C1039       C  0.45274248  0.72065658  0.96520217    -0.09570
C1040       C  0.45790619  0.75443252  0.97873173     0.06620
C1041       C  0.43622969  0.78779357  0.97304659    -0.03340
C1042       C  0.40877657  0.78652556  0.95492601    -0.07790
C1043       C  0.40203550  0.75227378  0.94198632     0.05740
C1044       C  0.42519675  0.71920365  0.94701375    -0.02810
Br1045     Br  0.42107464  0.67082056  0.93029030    -0.02510
H1046       H  0.46900592  0.69468141  0.96956506     0.09650
H1047       H  0.39200529  0.81246703  0.95144869     0.07670
Br1048     Br  0.44277631  0.83593089  0.98961900    -0.02940
C1049       C  0.36058828  0.00628978  0.27461786    -0.09570
C1050       C  0.35381092  0.50589226  0.29886067     0.06620
C1051       C  0.31572071  0.50546830  0.30741102    -0.03340
C1052       C  0.28484208  0.50344727  0.29170115    -0.07790
C1053       C  0.29041741  0.49866601  0.26694623     0.05740
C1054       C  0.32968917  0.00340746  0.25862147    -0.02810
Br1055     Br  0.34569425  0.00422576  0.22617973    -0.02510
H1056       H  0.39026115  0.00818889  0.26808120     0.09650
H1057       H  0.25653136  0.50616386  0.29969258     0.07670
Br1058     Br  0.30429042  0.50803892  0.34061838    -0.02940
C1059       C  0.18659361  0.52296043  0.26294233    -0.09570
C1060       C  0.21543858  0.49366008  0.26525800     0.06620
C1061       C  0.20668190  0.96275541  0.28152825    -0.03340
C1062       C  0.17411184  0.96452020  0.29617157    -0.07790
C1063       C  0.14854714  0.49589768  0.29541588     0.05740
C1064       C  0.15432617  0.52485212  0.27816999    -0.02810
Br1065     Br  0.11820828  0.56673051  0.27389543    -0.02510
H1066       H  0.18821516  0.54477998  0.24926172     0.09650
H1067       H  0.16975380  0.94154048  0.30906700     0.07670
Br1068     Br  0.23859640  0.91804362  0.28731731    -0.02940
C1069       C  0.25696772  0.56756203  0.24370825    -0.09570
C1070       C  0.25640755  0.53015314  0.23302108     0.06620
C1071       C  0.25971639  0.52951847  0.20757790    -0.03340
C1072       C  0.25834985  0.56418100  0.19475334    -0.07790
C1073       C  0.25666467  0.60010858  0.20579942     0.05740
C1074       C  0.25676283  0.60199866  0.23043112    -0.02810
Br1075     Br  0.25591741  0.65092542  0.24658604    -0.02510
H1076       H  0.25634463  0.56999941  0.26276424     0.09650
H1077       H  0.26012703  0.56332738  0.17562941     0.07670
Br1078     Br  0.27328400  0.48687534  0.18695253    -0.02940
C1079       C  0.27343810  0.89373146  0.21883745    -0.09570
C1080       C  0.24071457  0.89204456  0.20424576     0.06620
C1081       C  0.21148944  0.92022938  0.20685864    -0.03340
C1082       C  0.21698548  0.95070020  0.22262189    -0.07790
C1083       C  0.25167712  0.95534482  0.23593011     0.05740
C1084       C  0.27906123  0.92397424  0.23500156    -0.02810
Br1085     Br  0.32303549  0.91508742  0.25529483    -0.02510
H1086       H  0.29512880  0.87099268  0.21758301     0.09650
H1087       H  0.19496371  0.97315548  0.22295832     0.07670
Br1088     Br  0.16647336  0.92398380  0.18696825    -0.02940
C1089       C  0.75434696  0.49397611  0.25016622    -0.02900
C1090       C  0.98098859  0.25250660  0.00108253     0.00150
C1091       C  0.52058323  0.24675359  0.00039739     0.00150
C1092       C  0.74961028  0.49681443  0.74943265    -0.02900
C1093       C  0.50077249  0.25251379  0.75331821    -0.02900
C1094       C  0.74738868  0.47700428  0.00111611     0.00150
C1095       C  0.74275777  0.01663851  0.00147279     0.00150
C1096       C  0.74140307  0.36999244  0.92239306     0.42040
N1097       N  0.76180296  0.32943760  0.89628832     0.00930
C1098       C  0.65509709  0.20776905  0.82416247    -0.06940
H1099       H  0.63978694  0.17632500  0.91359122     0.06420
C1100       C  0.78885684  0.14388758  0.91231701    -0.07300
Co1101     Co  0.69633047  0.29368659  0.86910224     0.74180
N1102       N  0.66977162  0.22163524  0.89425750    -0.26470
Co1103     Co  0.70405188  0.19297699  0.86933787     0.74070
C1104       C  0.75442143  0.12475217  0.92257659     0.42140
N1105       N  0.83195247  0.23398047  0.89618997     0.00550
N1106       N  0.73650828  0.16457569  0.89532586     0.00650
N1107       N  0.65050935  0.27324037  0.82472395    -0.47320
H1108       H  0.67712372  0.35438156  0.91435921     0.06410
N1109       N  0.66665815  0.25993391  0.89413878     0.00940
N1110       N  0.73788022  0.16584497  0.84404737     0.00680
C1111       C  0.75529926  0.12860228  0.81569882     0.42280
N1112       N  0.82840936  0.27222954  0.89663721    -0.25930
C1113       C  0.71410826  0.34774615  0.82573990    -0.06850
N1114       N  0.77367231  0.35507051  0.91212935    -0.47040
N1115       N  0.72433717  0.14240909  0.82755910    -0.47260
C1116       C  0.74943918  0.36473107  0.81554585     0.42060
N1117       N  0.67131959  0.26023348  0.84265138     0.00930
N1118       N  0.82863030  0.27376068  0.84537494    -0.25950
N1119       N  0.72348186  0.32659307  0.89533340    -0.26440
N1120       N  0.83167227  0.23553880  0.84443312     0.00570
H1121       H  0.85046813  0.32025316  0.82335701     0.06460
H1122       H  0.82043555  0.14105721  0.82248729     0.06490
N1123       N  0.67409515  0.22198641  0.84287470    -0.26490
N1124       N  0.77490349  0.16737577  0.89540937    -0.26110
N1125       N  0.76492876  0.32958272  0.84513951     0.00930
C1126       C  0.62523715  0.24090824  0.92035007     0.42330
C1127       C  0.85162338  0.28653162  0.91349966    -0.07360
N1128       N  0.77618182  0.16850508  0.84395734    -0.26100
H1129       H  0.81935074  0.14024325  0.91629856     0.06480
N1130       N  0.64041886  0.27260688  0.90945514    -0.47330
H1131       H  0.85623834  0.31714788  0.91694699     0.06460
C1132       C  0.86336146  0.25645988  0.81420571     0.42160
C1133       C  0.70795520  0.35047849  0.91148949    -0.06850
Co1134     Co  0.79645182  0.30172937  0.87113568     0.73820
N1135       N  0.85710225  0.22105586  0.91203573    -0.47040
C1136       C  0.64031933  0.24187658  0.81180856     0.42430
N1137       N  0.77963346  0.35282624  0.82870343    -0.47030
Co1138     Co  0.80451298  0.20083199  0.87002774     0.73890
C1139       C  0.79002292  0.14604155  0.82642368    -0.07360
C1140       C  0.64498805  0.20697778  0.91039565    -0.06920
N1141       N  0.72673589  0.32630055  0.84399430    -0.26450
N1142       N  0.72313204  0.13943919  0.91123101    -0.47210
H1143       H  0.65133550  0.17728540  0.81998263     0.06440
C1144       C  0.84792257  0.28947630  0.82715483    -0.07340
Cl1145     Cl  0.75034323  0.24725662  0.87033354    -0.50340
C1146       C  0.87090873  0.25248191  0.92369819     0.42190
H1147       H  0.68404330  0.35188301  0.82075130     0.06400
N1148       N  0.85273389  0.22386460  0.82613367    -0.47050
C1149       C  0.63393327  0.23971798  0.18869068     0.42040
N1150       N  0.66712050  0.25700957  0.15833807     0.00930
C1151       C  0.79028832  0.14180226  0.09184980    -0.06940
H1152       H  0.82032980  0.14746431  0.18222557     0.06420
C1153       C  0.84761455  0.28886239  0.17492652    -0.07300
Co1154     Co  0.70265068  0.18965072  0.13344451     0.74180
N1155       N  0.77521088  0.16925225  0.15941162    -0.26470
Co1156     Co  0.80351115  0.20037401  0.13273405     0.74070
C1157       C  0.86471424  0.25534365  0.18696841     0.42140
N1158       N  0.75967829  0.32772999  0.15651629     0.00550
N1159       N  0.83031094  0.23536618  0.15787763     0.00650
N1160       N  0.72477190  0.13554344  0.09230260    -0.47320
H1161       H  0.64641623  0.17481340  0.18228607     0.06410
N1162       N  0.73701465  0.16522826  0.15968671     0.00940
N1163       N  0.83099626  0.23372065  0.10619644     0.00680
C1164       C  0.86992848  0.25325210  0.07876228     0.42280
N1165       N  0.72155303  0.32321439  0.15668060    -0.25930
C1166       C  0.64386126  0.20102869  0.09161172    -0.06850
N1167       N  0.64483183  0.27062354  0.17548615    -0.47040
N1168       N  0.85604052  0.22122859  0.09005316    -0.47260
C1169       C  0.62506291  0.23470756  0.08068413     0.42060
N1170       N  0.73674794  0.16147468  0.10800244     0.00930
N1171       N  0.72128515  0.32213960  0.10547718    -0.25950
N1172       N  0.67049967  0.21881625  0.15900450    -0.26440
N1173       N  0.75954417  0.32625679  0.10504832     0.00570
H1174       H  0.67513126  0.34875512  0.08583003     0.06460
H1175       H  0.85590163  0.31762568  0.08577183     0.06490
N1176       N  0.77498647  0.16561664  0.10802984    -0.26490
N1177       N  0.82665507  0.27355917  0.15729852    -0.26110
N1178       N  0.66533656  0.25468321  0.10690993     0.00930
C1179       C  0.75592283  0.13477734  0.19071975     0.42330
C1180       C  0.70651833  0.34360800  0.17455656    -0.07360
N1181       N  0.82773054  0.27204952  0.10609671    -0.26100
H1182       H  0.85086745  0.31957739  0.17862720     0.06480
N1183       N  0.72441844  0.14407064  0.17775858    -0.47330
H1184       H  0.67598534  0.34477603  0.17913189     0.06460
C1185       C  0.73939559  0.36297768  0.07687597     0.42160
C1186       C  0.65009418  0.20513257  0.17752354    -0.06850
Co1187     Co  0.69328568  0.28969610  0.13172592     0.73820
N1188       N  0.77198312  0.35110444  0.17345816    -0.47040
C1189       C  0.75687683  0.12185807  0.08113484     0.42430
N1190       N  0.64015141  0.26681203  0.09091567    -0.47030
Co1191     Co  0.79386003  0.30058697  0.13115510     0.73890
C1192       C  0.85141073  0.28699532  0.08942534    -0.07360
C1193       C  0.78977121  0.15047699  0.17814992    -0.06920
N1194       N  0.66822458  0.21635678  0.10768754    -0.26450
N1195       N  0.85312562  0.22328704  0.17517222    -0.47210
H1196       H  0.82112636  0.13766121  0.08955596     0.06440
C1197       C  0.70594180  0.34440609  0.08848091    -0.07340
Cl1198     Cl  0.74834537  0.24505367  0.13200097    -0.50380
C1199       C  0.73998071  0.36244434  0.18549791     0.42190
H1200       H  0.63902697  0.17031421  0.08857648     0.06400
N1201       N  0.77154182  0.35074147  0.08838773    -0.47050
C1202       C  0.61618987  0.00926425  0.68692240     0.42040
N1203       N  0.58208705  0.48970026  0.65762037     0.00930
C1204       C  0.96002769  0.10877471  0.59252019    -0.06940
H1205       H  0.93302329  0.10555383  0.68293553     0.06420
C1206       C  0.90412679  0.46015865  0.67637490    -0.07300
Co1207     Co  0.54698799  0.05752058  0.63255153     0.74180
N1208       N  0.97650947  0.08044125  0.65996001    -0.26470
Co1209     Co  0.94675249  0.04980657  0.63398066     0.74070
C1210       C  0.88933670  0.99308416  0.68977372     0.42140
N1211       N  0.98741317  0.41976534  0.65610516     0.00550
N1212       N  0.92076827  0.01422405  0.65945767     0.00650
N1213       N  0.52584544  0.11265714  0.59204399    -0.47320
H1214       H  0.60053822  0.07324027  0.68002627     0.06410
N1215       N  0.51475381  0.08364675  0.65912673     0.00940
N1216       N  0.91797690  0.01843473  0.60786792     0.00680
C1217       C  0.88102803  0.00255819  0.57902562     0.42280
N1218       N  0.52569470  0.42291326  0.65651329    -0.25930
C1219       C  0.60226927  0.04470187  0.58944096    -0.06850
N1220       N  0.60475750  0.47716867  0.67492153    -0.47040
N1221       N  0.89393832  0.03295896  0.59187372    -0.47260
C1222       C  0.62009209  0.01100676  0.57799453     0.42060
N1223       N  0.51324965  0.08696321  0.60784176     0.00930
N1224       N  0.52600616  0.42510122  0.60518735    -0.25950
N1225       N  0.57857722  0.02790392  0.65760846    -0.26440
N1226       N  0.98767768  0.42222647  0.60482073     0.00570
H1227       H  0.57156343  0.39930374  0.58491055     0.06460
H1228       H  0.89443943  0.43727477  0.58410778     0.06490
N1229       N  0.97488747  0.08440239  0.60863918    -0.26490
N1230       N  0.92345968  0.47602066  0.65812370    -0.26110
N1231       N  0.58264969  0.49131423  0.60604015     0.00930
C1232       C  0.99822966  0.11768744  0.68904779     0.42330
C1233       C  0.53932037  0.39983867  0.67375625    -0.07360
N1234       N  0.92129256  0.48018671  0.60655916    -0.26100
H1235       H  0.90042420  0.42933890  0.67972243     0.06480
N1236       N  0.52885869  0.10624810  0.67592399    -0.47330
H1237       H  0.56971290  0.39532304  0.67781879     0.06460
C1238       C  0.00706389  0.38319392  0.57734249     0.42160
C1239       C  0.59850123  0.04270989  0.67564397    -0.06850
Co1240     Co  0.55485190  0.45678505  0.63135324     0.73820
N1241       N  0.97369800  0.39535153  0.67223524    -0.47040
C1242       C  0.99393176  0.12803424  0.58178749     0.42430
N1243       N  0.60694330  0.47900205  0.58947399    -0.47030
Co1244     Co  0.95429113  0.44899898  0.63117733     0.73890
C1245       C  0.89882265  0.46744119  0.58886963    -0.07360
C1246       C  0.96328242  0.10122271  0.67831620    -0.06920
N1247       N  0.57940758  0.02960117  0.60641040    -0.26450
N1248       N  0.89973393  0.02561725  0.67779083    -0.47210
H1249       H  0.92933953  0.11294838  0.58931244     0.06440
C1250       C  0.54083685  0.40234246  0.58823547    -0.07340
Cl1251     Cl  0.00072084  0.00325179  0.63204737    -0.50340
C1252       C  0.00458102  0.38142218  0.68408567     0.42190
H1253       H  0.60726660  0.07543838  0.58649317     0.06400
N1254       N  0.97525206  0.39739191  0.58862387    -0.47050
C1255       C  0.99591301  0.39079951  0.31382074     0.42040
N1256       N  0.51521899  0.42235123  0.34428006     0.00930
C1257       C  0.89949141  0.04297008  0.41224738    -0.06940
H1258       H  0.89842946  0.07150827  0.32196829     0.06420
C1259       C  0.53922534  0.10008903  0.32318954    -0.07300
Co1260     Co  0.94837499  0.45661908  0.37065169     0.74180
N1261       N  0.92335903  0.02735240  0.34445031    -0.26470
Co1262     Co  0.95541476  0.05699448  0.36950443     0.74070
C1263       C  0.00428908  0.11418990  0.31136980     0.42140
N1264       N  0.58317221  0.01696910  0.34269734     0.00550
N1265       N  0.98784507  0.08321335  0.34282330     0.00650
N1266       N  0.89548677  0.47727982  0.41227322    -0.47320
H1267       H  0.93155708  0.40366484  0.32222402     0.06410
N1268       N  0.92047178  0.48909967  0.34483454     0.00940
N1269       N  0.98893960  0.08629533  0.39438638     0.00680
C1270       C  0.00704153  0.12601618  0.42146236     0.42280
N1271       N  0.58011740  0.47872386  0.34350128    -0.25930
C1272       C  0.96378577  0.40055129  0.41302734    -0.06850
N1273       N  0.52780370  0.40146486  0.32618239    -0.47040
N1274       N  0.97566953  0.11059304  0.41058744    -0.47260
C1275       C  0.99818086  0.38275256  0.42363261     0.42060
N1276       N  0.92061640  0.49006968  0.39622528     0.00930
N1277       N  0.58212230  0.48021653  0.39481884    -0.25950
N1278       N  0.97697996  0.42531086  0.34476566    -0.26440
N1279       N  0.58483679  0.01859536  0.39432299     0.00570
H1280       H  0.61049713  0.43625676  0.41557073     0.06460
H1281       H  0.57202284  0.11314430  0.41422468     0.06490
N1282       N  0.92324457  0.02841394  0.39570163    -0.26490
N1283       N  0.52612099  0.08089615  0.34229647    -0.26110
N1284       N  0.51623649  0.42190908  0.39596539     0.00930
C1285       C  0.88654090  0.00663569  0.31516603     0.42330
C1286       C  0.60042096  0.46364047  0.32561630    -0.07360
N1287       N  0.52734469  0.08444453  0.39391383    -0.26100
H1288       H  0.56946158  0.10417709  0.31832574     0.06480
N1289       N  0.89790034  0.47546941  0.32786182    -0.47330
H1290       H  0.60389453  0.43292337  0.32215888     0.06460
C1291       C  0.62401090  0.00144041  0.42202195     0.42160
C1292       C  0.96217661  0.40620640  0.32634161    -0.06850
Co1293     Co  0.54900184  0.45009133  0.36979485     0.73820
N1294       N  0.60538104  0.02928657  0.32492649    -0.47040
C1295       C  0.88090241  0.00886981  0.42325537     0.42430
N1296       N  0.52953448  0.39717815  0.41197836    -0.47030
Co1297     Co  0.55613664  0.05091708  0.36840226     0.73890
C1298       C  0.54150277  0.10832960  0.41059650    -0.07360
C1299       C  0.90250130  0.04115193  0.32638312    -0.06920
N1300       N  0.97786078  0.42424897  0.39612451    -0.26450
N1301       N  0.97373482  0.10361167  0.32500694    -0.47210
H1302       H  0.89431052  0.07362407  0.41504529     0.06440
C1303       C  0.60564736  0.46669925  0.41178588    -0.07340
Cl1304     Cl  0.00231070  0.00364787  0.37002426    -0.50340
C1305       C  0.61681710  0.99714345  0.31310414     0.42190
H1306       H  0.93327256  0.39530591  0.41671736     0.06400
N1307       N  0.60956771  0.03231893  0.41016173    -0.47050
C1308       C  0.49374523  0.27163822  0.50064255     0.00150
C1309       C  0.49570292  0.23177208  0.50109644     0.00150
C1310       C  0.73161216  0.50530076  0.50078901     0.00150
C1311       C  0.77138167  0.50958348  0.50071286     0.00150
C1312       C  0.49843955  0.25472599  0.25210740    -0.02900
C1313       C  0.52712540  0.32123965  0.26549501    -0.09570
C1314       C  0.49633148  0.29361875  0.26602477     0.06620
C1315       C  0.96241815  0.30374158  0.27944491    -0.03340
C1316       C  0.96227819  0.33717972  0.29328978    -0.07790
C1317       C  0.99522161  0.36104137  0.29506706     0.05740
C1318       C  0.52721556  0.35392974  0.28015839    -0.02810
Br1319     Br  0.57147770  0.38822368  0.27845210    -0.02510
H1320       H  0.55174196  0.31787488  0.25384490     0.09650
H1321       H  0.93710292  0.34244968  0.30436202     0.07670
Br1322     Br  0.91728196  0.27097807  0.28408408    -0.02940
C1323       C  0.00101991  0.18135663  0.25857028    -0.09570
C1324       C  0.49965097  0.21873157  0.26927561     0.06620
C1325       C  0.50283247  0.21947335  0.29470546    -0.03340
C1326       C  0.50312256  0.18473782  0.30747158    -0.07790
C1327       C  0.00305748  0.14882862  0.29637647     0.05740
C1328       C  0.00247411  0.14694823  0.27178185    -0.02810
Br1329     Br  0.00336382  0.09802535  0.25561223    -0.02510
H1330       H  0.00041383  0.17883644  0.23952754     0.09650
H1331       H  0.50492940  0.18558133  0.32658771     0.07670
Br1332     Br  0.51310480  0.26269762  0.31557818    -0.02940
C1333       C  0.97320746  0.15135079  0.45681151    -0.09570
C1334       C  0.00435100  0.15487462  0.44084612     0.06620
C1335       C  0.53064650  0.18635309  0.44344316    -0.03340
C1336       C  0.52635543  0.21228236  0.46238023    -0.07790
C1337       C  0.49618971  0.20758373  0.47905523     0.05740
C1338       C  0.96898840  0.17701745  0.47573055    -0.02810
Br1339     Br  0.92427362  0.16932349  0.49571973    -0.02510
H1340       H  0.95212629  0.12801582  0.45476277     0.09650
H1341       H  0.54757553  0.23541119  0.46455695     0.07670
Br1342     Br  0.57166300  0.19697437  0.42121759    -0.02940
C1343       C  0.96686266  0.32636568  0.44429836    -0.09570
C1344       C  0.99913820  0.35149485  0.44179745     0.06620
C1345       C  0.53120716  0.34647187  0.45699068    -0.03340
C1346       C  0.52942105  0.31855168  0.47496773    -0.07790
C1347       C  0.49632711  0.29488684  0.47832411     0.05740
C1348       C  0.96537230  0.29798300  0.46213940    -0.02810
Br1349     Br  0.91985635  0.26549159  0.46365633    -0.02510
H1350       H  0.94241055  0.32889313  0.43239618     0.09650
H1351       H  0.55378204  0.31616089  0.48694253     0.07670
Br1352     Br  0.57716732  0.37856667  0.45569363    -0.02940
C1353       C  0.66657710  0.46822680  0.45144698    -0.09570
C1354       C  0.65464232  0.00314150  0.44065603     0.06620
C1355       C  0.67222032  0.03845743  0.44819940    -0.03340
C1356       C  0.69985917  0.03803469  0.46633739    -0.07790
C1357       C  0.70954638  0.50339311  0.47804006     0.05740
C1358       C  0.69338490  0.46816898  0.46998264    -0.02810
Br1359     Br  0.70655117  0.41903948  0.48380324    -0.02510
H1360       H  0.65439468  0.44062759  0.44597348     0.09650
H1361       H  0.71211004  0.06534382  0.47236473     0.07670
Br1362     Br  0.65901825  0.08888854  0.43591333    -0.02940
C1363       C  0.80223145  0.47514236  0.46682046    -0.09570
C1364       C  0.79275398  0.51040058  0.47774152     0.06620
C1365       C  0.80915703  0.04514574  0.46904847    -0.03340
C1366       C  0.83663237  0.04400943  0.45080241    -0.07790
C1367       C  0.84907722  0.00839422  0.44118975     0.05740
C1368       C  0.83094341  0.47355192  0.44926684    -0.02810
Br1369     Br  0.84541406  0.42226992  0.43909055    -0.02510
H1370       H  0.78979076  0.44823546  0.47353672     0.09650
H1371       H  0.84919829  0.07125815  0.44483772     0.07670
Br1372     Br  0.79570980  0.09479108  0.48199951    -0.02940
C1373       C  0.67742064  0.03624281  0.52265040    -0.09570
C1374       C  0.70633476  0.50733310  0.52234225     0.06620
C1375       C  0.70663828  0.47960415  0.54082231    -0.03340
C1376       C  0.67855937  0.48160919  0.55889817    -0.07790
C1377       C  0.64964787  0.01053187  0.55888435     0.05740
C1378       C  0.64912743  0.03776657  0.54028566    -0.02810
Br1379     Br  0.60840639  0.07519775  0.53602377    -0.02510
H1380       H  0.67622685  0.05783783  0.50876772     0.09650
H1381       H  0.67908141  0.46011981  0.57293756     0.07670
Br1382     Br  0.74254119  0.43706274  0.54187203    -0.02940
C1383       C  0.82927492  0.98273130  0.52153295    -0.09570
C1384       C  0.79729212  0.50842847  0.52221681     0.06620
C1385       C  0.79473579  0.53419574  0.54167712    -0.03340
C1386       C  0.82184338  0.53153943  0.56021342    -0.07790
C1387       C  0.85311044  0.00528006  0.55923412     0.05740
C1388       C  0.85759822  0.98222545  0.53904192    -0.02810
Br1389     Br  0.90441105  0.95358741  0.53259342    -0.02510
H1390       H  0.83341443  0.96325248  0.50686723     0.09650
H1391       H  0.81900410  0.55076345  0.57523843     0.07670
Br1392     Br  0.75867545  0.57651589  0.54319000    -0.02940
C1393       C  0.52746050  0.15850189  0.54758043    -0.09570
C1394       C  0.99531459  0.15812357  0.56294127     0.06620
C1395       C  0.96605415  0.18649405  0.55984965    -0.03340
C1396       C  0.96768887  0.21178561  0.54039592    -0.07790
C1397       C  0.49829510  0.20983018  0.52391796     0.05740
C1398       C  0.52930614  0.18404443  0.52835313    -0.02810
Br1399     Br  0.57565582  0.18311734  0.50932782    -0.02510
H1400       H  0.55108069  0.13824905  0.55026365     0.09650
H1401       H  0.94406273  0.23197457  0.53759930     0.07670
Br1402     Br  0.92438465  0.19417402  0.58198470    -0.02940
C1403       C  0.53201699  0.30102032  0.53361949    -0.09570
C1404       C  0.49587227  0.29537287  0.52272907     0.06620
C1405       C  0.96373258  0.31683288  0.53089754    -0.03340
C1406       C  0.96847236  0.34455326  0.54869868    -0.07790
C1407       C  0.00502217  0.35197469  0.55894455     0.05740
C1408       C  0.53702503  0.32883339  0.55148316    -0.02810
Br1409     Br  0.58841774  0.33171861  0.56444905    -0.02510
H1410       H  0.55691259  0.28447741  0.52757830     0.09650
H1411       H  0.94318458  0.36092059  0.55426688     0.07670
Br1412     Br  0.91232442  0.30928945  0.51877358    -0.02940
C1413       C  0.53121417  0.24135487  0.21137886    -0.09570
C1414       C  0.53561847  0.25003578  0.23582418     0.06620
C1415       C  0.57475914  0.24925135  0.24452984    -0.03340
C1416       C  0.60638435  0.24566163  0.22894497    -0.07790
C1417       C  0.60058177  0.24074970  0.20481298     0.05740
C1418       C  0.56278444  0.23782647  0.19609674    -0.02810
Br1419     Br  0.55268622  0.22915326  0.16317469    -0.02510
H1420       H  0.50318226  0.23645534  0.20342398     0.09650
H1421       H  0.63584012  0.24662591  0.23573221     0.07670
Br1422     Br  0.58923010  0.25193431  0.27712501    -0.02940
C1423       C  0.93239696  0.22584133  0.23674713    -0.09570
C1424       C  0.96116459  0.25564469  0.23602354     0.06620
C1425       C  0.95488430  0.28679915  0.21957535    -0.03340
C1426       C  0.92270901  0.28646253  0.20461026    -0.07790
C1427       C  0.89590506  0.25578404  0.20486462     0.05740
C1428       C  0.90055542  0.22559011  0.22140995    -0.02810
Br1429     Br  0.86319638  0.18416561  0.22492366    -0.02510
H1430       H  0.93325691  0.20283976  0.24970427     0.09650
H1431       H  0.91962941  0.30981026  0.19185817     0.07670
Br1432     Br  0.99033059  0.32955861  0.21408226    -0.02940
C1433       C  0.78001596  0.06262149  0.02590971    -0.09570
C1434       C  0.74636255  0.03981470  0.02360382     0.06620
C1435       C  0.71749469  0.04193568  0.04134173    -0.03340
C1436       C  0.72181998  0.06870744  0.05986108    -0.07790
C1437       C  0.75566620  0.09188544  0.06208158     0.05740
C1438       C  0.78599515  0.08648639  0.04540178    -0.02810
Br1439     Br  0.83744906  0.10762332  0.04759737    -0.02510
H1440       H  0.80293580  0.06039186  0.01276413     0.09650
H1441       H  0.69853936  0.07117258  0.07272735     0.07670
Br1442     Br  0.67126525  0.01032604  0.04108950    -0.02940
C1443       C  0.71349416  0.42478686  0.02334771    -0.09570
C1444       C  0.74428522  0.45191898  0.02275091     0.06620
C1445       C  0.77282128  0.45000389  0.04067659    -0.03340
C1446       C  0.76994870  0.42134433  0.05828245    -0.07790
C1447       C  0.73957018  0.39377002  0.05843520     0.05740
C1448       C  0.71110876  0.39580023  0.04061687    -0.02810
Br1449     Br  0.67070813  0.35773979  0.03674181    -0.02510
H1450       H  0.69165176  0.42523447  0.00960374     0.09650
H1451       H  0.79226427  0.42010962  0.07172332     0.07670
Br1452     Br  0.81845560  0.48232597  0.04154104    -0.02940
C1453       C  0.77720546  0.04077437  0.96501265    -0.09570
C1454       C  0.74357796  0.04044593  0.97922522     0.06620
C1455       C  0.71321249  0.06638201  0.97364865    -0.03340
C1456       C  0.71754008  0.09297513  0.95507544    -0.07790
C1457       C  0.75175464  0.09457576  0.94145991     0.05740
C1458       C  0.78134354  0.06702340  0.94610503    -0.02810
Br1459     Br  0.82691778  0.06134161  0.92675834    -0.02510
H1460       H  0.80076694  0.02097041  0.96895243     0.09650
H1461       H  0.69401650  0.11303316  0.95150239     0.07670
Br1462     Br  0.66459836  0.06672502  0.99029195    -0.02940
C1463       C  0.77658783  0.40360869  0.95439847    -0.09570
C1464       C  0.74261611  0.40071132  0.94084160     0.06620
C1465       C  0.71211850  0.42745383  0.94520360    -0.03340
C1466       C  0.71500738  0.45374029  0.96405922    -0.07790
C1467       C  0.74822526  0.45480590  0.97841798     0.05740
C1468       C  0.77969569  0.43027744  0.97281316    -0.02810
Br1469     Br  0.82820631  0.43193887  0.98926596    -0.02510
H1470       H  0.80090630  0.38443362  0.95096299     0.09650
H1471       H  0.69074229  0.47273672  0.96795858     0.07670
Br1472     Br  0.66686860  0.43188253  0.92568053    -0.02940
C1473       C  0.00995673  0.21956897  0.71213277    -0.09570
C1474       C  0.00169559  0.21552037  0.73667804     0.06620
C1475       C  0.99749963  0.17632931  0.74516165    -0.03340
C1476       C  0.99542749  0.14508343  0.72934663    -0.07790
C1477       C  0.99986788  0.15095352  0.70513653     0.05740
C1478       C  0.00813677  0.18831266  0.69659152    -0.02810
Br1479     Br  0.01650327  0.19846457  0.66356046    -0.02510
H1480       H  0.01868544  0.24697197  0.70436848     0.09650
H1481       H  0.99087769  0.11579875  0.73604221     0.07670
Br1482     Br  0.99389114  0.16154886  0.77775506    -0.02940
C1483       C  0.53312303  0.34808982  0.71885519    -0.09570
C1484       C  0.00264236  0.35093999  0.70265497     0.06620
C1485       C  0.97107174  0.32482073  0.70470355    -0.03340
C1486       C  0.97152327  0.29582441  0.72193862    -0.07790
C1487       C  0.00328817  0.29038328  0.73755006     0.05740
C1488       C  0.53369127  0.31934189  0.73651887    -0.02810
Br1489     Br  0.57486511  0.32819845  0.75895387    -0.02510
H1490       H  0.55652799  0.36936221  0.71817170     0.09650
H1491       H  0.94738875  0.27537917  0.72219114     0.07670
Br1492     Br  0.92738305  0.32418853  0.68358106    -0.02940
C1493       C  0.57284129  0.24024042  0.75946435    -0.09570
C1494       C  0.53603618  0.24701991  0.77028450     0.06620
C1495       C  0.53502197  0.24542312  0.79571249    -0.03340
C1496       C  0.56972565  0.24475007  0.80833955    -0.07790
C1497       C  0.60554493  0.24164543  0.79707897     0.05740
C1498       C  0.60714951  0.23760656  0.77258014    -0.02810
Br1499     Br  0.65569417  0.23095779  0.75628696    -0.02510
H1500       H  0.57533602  0.23913125  0.74042106     0.09650
H1501       H  0.56882961  0.24520054  0.82748864     0.07670
Br1502     Br  0.49118647  0.23732851  0.81664881    -0.02940
C1503       C  0.91863912  0.29011616  0.79488325    -0.09570
C1504       C  0.89309503  0.25832068  0.79540539     0.06620
C1505       C  0.89797732  0.22856487  0.77881112    -0.03340
C1506       C  0.93061447  0.22889400  0.76398972    -0.07790
C1507       C  0.96105669  0.25663136  0.76668973     0.05740
C1508       C  0.95221033  0.28979359  0.78093146    -0.02810
Br1509     Br  0.98595462  0.33365482  0.78596999    -0.02510
H1510       H  0.91442363  0.31417927  0.80690522     0.09650
H1511       H  0.93179838  0.20644230  0.75080171     0.07670
Br1512     Br  0.86059034  0.18732610  0.77514398    -0.02940
C1513       C  0.82250353  0.99156785  0.74289865    -0.09570
C1514       C  0.78508944  0.99229042  0.73225017     0.06620
C1515       C  0.78413018  0.98781902  0.70692708    -0.03340
C1516       C  0.81874627  0.98875911  0.69398096    -0.07790
C1517       C  0.85475687  0.99133965  0.70490252     0.05740
C1518       C  0.85685680  0.99136131  0.72952157    -0.02810
Br1519     Br  0.90593729  0.99258928  0.74549570    -0.02510
H1520       H  0.82515748  0.99325925  0.76189672     0.09650
H1521       H  0.81774815  0.98669221  0.67488180     0.07670
Br1522     Br  0.74077976  0.97568081  0.68655916    -0.02940
C1523       C  0.70737519  0.03368821  0.72094317    -0.09570
C1524       C  0.71018460  0.00134575  0.73634744     0.06620
C1525       C  0.67564781  0.47839344  0.73942531    -0.03340
C1526       C  0.64555620  0.48138978  0.72291319    -0.07790
C1527       C  0.64649685  0.00979690  0.70518095     0.05740
C1528       C  0.67666341  0.03776485  0.70520610    -0.02810
Br1529     Br  0.68270086  0.07798248  0.68175843    -0.02510
H1530       H  0.73140870  0.05397205  0.71935577     0.09650
H1531       H  0.62049137  0.46218781  0.72438189     0.07670
Br1532     Br  0.66188903  0.44845060  0.76706180    -0.02940
C1533       C  0.72271906  0.03897473  0.78226544    -0.09570
C1534       C  0.75147025  0.03533104  0.76443242     0.06620
C1535       C  0.77792155  0.06748244  0.76173771    -0.03340
C1536       C  0.77932218  0.09667893  0.77905082    -0.07790
C1537       C  0.75297218  0.09716583  0.79796750     0.05740
C1538       C  0.72366195  0.06840047  0.79904700    -0.02810
Br1539     Br  0.68567757  0.06469246  0.82402823    -0.02510
H1540       H  0.70049414  0.01681126  0.78420986     0.09650
H1541       H  0.80006617  0.12034347  0.77712078     0.07670
Br1542     Br  0.80772686  0.07988631  0.73380152    -0.02940
C1543       C  0.76407357  0.46484363  0.79003640    -0.09570
C1544       C  0.75220223  0.46029109  0.76616964     0.06620
C1545       C  0.74643889  0.42105702  0.75846516    -0.03340
C1546       C  0.74514984  0.39042438  0.77487361    -0.07790
C1547       C  0.75193554  0.39708145  0.79874940     0.05740
C1548       C  0.76279877  0.43430081  0.80620981    -0.02810
Br1549     Br  0.77472351  0.44548082  0.83860752    -0.02510
H1550       H  0.77473860  0.49227768  0.79669752     0.09650
H1551       H  0.73872211  0.36111599  0.76895288     0.07670
Br1552     Br  0.73760380  0.40546420  0.72660941    -0.02940
C1553       C  0.53770230  0.21786054  0.04031006    -0.09570
C1554       C  0.54592093  0.24457928  0.02197763     0.06620
C1555       C  0.58029801  0.26753575  0.02366535    -0.03340
C1556       C  0.60546033  0.26286494  0.04268105    -0.07790
C1557       C  0.59754603  0.23612718  0.06068358     0.05740
C1558       C  0.56294617  0.21385625  0.05968098    -0.02810
Br1559     Br  0.54746215  0.17996738  0.08502591    -0.02510
H1560       H  0.51181001  0.19979812  0.03949240     0.09650
H1561       H  0.63156004  0.28061726  0.04351672     0.07670
Br1562     Br  0.59406837  0.30840233  0.00194539    -0.02940
C1563       C  0.92366037  0.22647989  0.02291842    -0.09570
C1564       C  0.95639730  0.25143302  0.02315316     0.06620
C1565       C  0.96005312  0.27791498  0.04218211    -0.03340
C1566       C  0.93218880  0.27763656  0.06051139    -0.07790
C1567       C  0.89950363  0.25286144  0.05970356     0.05740
C1568       C  0.89472844  0.22849382  0.04017370    -0.02810
Br1569     Br  0.84589710  0.20361102  0.03381717    -0.02510
H1570       H  0.91897618  0.20692314  0.00825458     0.09650
H1571       H  0.93543818  0.29767495  0.07510537     0.07670
Br1572     Br  0.99921563  0.31790708  0.04321118    -0.02940
C1573       C  0.58958887  0.20857135  0.95341020    -0.09570
C1574       C  0.59404031  0.24127349  0.93864732     0.06620
C1575       C  0.56901987  0.27345043  0.94213801    -0.03340
C1576       C  0.54264016  0.27335394  0.96109010    -0.07790
C1577       C  0.54136819  0.24225262  0.97724779     0.05740
C1578       C  0.56358993  0.20880970  0.97246484    -0.02810
Br1579     Br  0.55911099  0.16236144  0.99121873    -0.02510
H1580       H  0.60734041  0.18301201  0.95072660     0.09650
H1581       H  0.52518869  0.29899971  0.96428084     0.07670
Br1582     Br  0.56943991  0.31894895  0.92231906    -0.02940
C1583       C  0.95274224  0.22065678  0.96520219    -0.09570
C1584       C  0.95790615  0.25443275  0.97873168     0.06620
C1585       C  0.93622981  0.28779388  0.97304650    -0.03340
C1586       C  0.90877665  0.28652593  0.95492593    -0.07790
C1587       C  0.90203537  0.25227411  0.94198632     0.05740
C1588       C  0.92519645  0.21920388  0.94701380    -0.02810
Br1589     Br  0.92107400  0.17082067  0.93029051    -0.02510
H1590       H  0.96900554  0.19468153  0.96956512     0.09650
H1591       H  0.89200551  0.31246747  0.95144856     0.07670
Br1592     Br  0.94277671  0.33593124  0.98961883    -0.02940
C1593       C  0.86058430  0.50628966  0.27461845    -0.09570
C1594       C  0.85381526  0.00589236  0.29886012     0.06620
C1595       C  0.81572517  0.00546815  0.30741067    -0.03340
C1596       C  0.78484632  0.00344709  0.29170097    -0.07790
C1597       C  0.79042126  0.99866595  0.26694600     0.05740
C1598       C  0.82968544  0.50340745  0.25862191    -0.02810
Br1599     Br  0.84569111  0.50422557  0.22618028    -0.02510
H1600       H  0.89025727  0.50818863  0.26808197     0.09650
H1601       H  0.75653574  0.00616358  0.29969258     0.07670
Br1602     Br  0.80429533  0.00803848  0.34061810    -0.02940
C1603       C  0.68659747  0.02296068  0.26294269    -0.09570
C1604       C  0.71544238  0.99366026  0.26525823     0.06620
C1605       C  0.70667801  0.46275526  0.28152801    -0.03340
C1606       C  0.67410790  0.46452009  0.29617129    -0.07790
C1607       C  0.64855109  0.99589780  0.29541622     0.05740
C1608       C  0.65433012  0.02485235  0.27817040    -0.02810
Br1609     Br  0.61821237  0.06673090  0.27389597    -0.02510
H1610       H  0.68821891  0.04478027  0.24926211     0.09650
H1611       H  0.66974987  0.44154041  0.30906674     0.07670
Br1612     Br  0.73859243  0.41804348  0.28731719    -0.02940
C1613       C  0.75697128  0.06756204  0.24370809    -0.09570
C1614       C  0.75641081  0.03015309  0.23302100     0.06620
C1615       C  0.75971877  0.02951827  0.20757779    -0.03340
C1616       C  0.75835123  0.06418068  0.19475317    -0.07790
C1617       C  0.75666610  0.10010832  0.20579918     0.05740
C1618       C  0.75676553  0.10199857  0.23043088    -0.02810
Br1619     Br  0.75592061  0.15092543  0.24658571    -0.02510
H1620       H  0.75634895  0.06999953  0.26276408     0.09650
H1621       H  0.76012770  0.06332693  0.17562922     0.07670
Br1622     Br  0.77328642  0.98687512  0.18695245    -0.02940
C1623       C  0.77343605  0.39373169  0.21883750    -0.09570
C1624       C  0.74071296  0.39204466  0.20424549     0.06620
C1625       C  0.71148751  0.42022923  0.20685817    -0.03340
C1626       C  0.71698285  0.45069997  0.22262158    -0.07790
C1627       C  0.75167413  0.45534478  0.23593010     0.05740
C1628       C  0.77905847  0.42397436  0.23500177    -0.02810
Br1629     Br  0.82303207  0.41508748  0.25529558    -0.02510
H1630       H  0.79512693  0.37099305  0.21758325     0.09650
H1631       H  0.69496091  0.47315508  0.22295787     0.07670
Br1632     Br  0.66647202  0.42398354  0.18696727    -0.02940
C1633       C  0.75435050  0.99397615  0.25016621    -0.02900
C1634       C  0.98098856  0.75250645  0.00108260     0.00150
C1635       C  0.52058327  0.74675352  0.00039749     0.00150
C1636       C  0.74961294  0.99681437  0.74943277    -0.02900
C1637       C  0.50077257  0.75251343  0.75331828    -0.02900
C1638       C  0.74738884  0.97700412  0.00111600     0.00150
C1639       C  0.74275765  0.51663867  0.00147294     0.00150
C1640       C  0.74140313  0.86999216  0.92239305     0.42040
N1641       N  0.76180303  0.82943728  0.89628835     0.00930
C1642       C  0.65509708  0.70776864  0.82416260    -0.06940
H1643       H  0.63978720  0.67632490  0.91359140     0.06420
C1644       C  0.78885700  0.64388735  0.91231696    -0.07300
Co1645     Co  0.69633056  0.79368639  0.86910220     0.74180
N1646       N  0.66977174  0.72163510  0.89425757    -0.26470
Co1647     Co  0.70405195  0.69297681  0.86933794     0.74070
C1648       C  0.75442159  0.62475205  0.92257662     0.42140
N1649       N  0.83195263  0.73398014  0.89618993     0.00550
N1650       N  0.73650841  0.66457553  0.89532588     0.00650
N1651       N  0.65050931  0.77323997  0.82472393    -0.47320
H1652       H  0.67712378  0.85438138  0.91435913     0.06410
N1653       N  0.66665821  0.75993376  0.89413878     0.00940
N1654       N  0.73788018  0.66584480  0.84404741     0.00680
C1655       C  0.75529884  0.62860213  0.81569878     0.42280
N1656       N  0.82840944  0.77222920  0.89663724    -0.25930
C1657       C  0.71410863  0.84774606  0.82573986    -0.06850
N1658       N  0.77367237  0.85507017  0.91212938    -0.47040
N1659       N  0.72433692  0.64240902  0.82755916    -0.47260
C1660       C  0.74943968  0.86473093  0.81554591     0.42060
N1661       N  0.67131964  0.76023321  0.84265136     0.00930
N1662       N  0.82863045  0.77376050  0.84537499    -0.25950
N1663       N  0.72348194  0.82659284  0.89533337    -0.26440
N1664       N  0.83167236  0.73553861  0.84443308     0.00570
H1665       H  0.85046845  0.82025313  0.82335725     0.06460
H1666       H  0.82043525  0.64105687  0.82248705     0.06490
N1667       N  0.67409518  0.72198614  0.84287477    -0.26490
N1668       N  0.77490363  0.66737551  0.89540932    -0.26110
N1669       N  0.76492897  0.82958245  0.84513957     0.00930
C1670       C  0.62523733  0.74090815  0.92035016     0.42330
C1671       C  0.85162345  0.78653126  0.91349969    -0.07360
N1672       N  0.77618178  0.66850484  0.84395727    -0.26100
H1673       H  0.81935090  0.64024300  0.91629848     0.06480
N1674       N  0.64041896  0.77260676  0.90945516    -0.47330
H1675       H  0.85623837  0.81714751  0.91694705     0.06460
C1676       C  0.86336169  0.75645991  0.81420578     0.42160
C1677       C  0.70795526  0.85047827  0.91148944    -0.06850
Co1678     Co  0.79645193  0.80172908  0.87113573     0.73820
N1679       N  0.85710246  0.72105552  0.91203566    -0.47040
C1680       C  0.64031927  0.74187606  0.81180863     0.42430
N1681       N  0.77963381  0.85282598  0.82870354    -0.47030
Co1682     Co  0.80451308  0.70083172  0.87002768     0.73890
C1683       C  0.79002267  0.64604129  0.82642354    -0.07360
C1684       C  0.64498824  0.70697768  0.91039577    -0.06920
N1685       N  0.72673609  0.82630035  0.84399427    -0.26450
N1686       N  0.72313218  0.63943910  0.91123107    -0.47210
H1687       H  0.65133547  0.67728496  0.81998284     0.06440
C1688       C  0.84792282  0.78947624  0.82715497    -0.07340
Cl1689     Cl  0.75034332  0.74725639  0.87033353    -0.50340
C1690       C  0.87090888  0.75248156  0.92369816     0.42190
H1691       H  0.68404371  0.85188302  0.82075120     0.06400
N1692       N  0.85273403  0.72386453  0.82613362    -0.47050
C1693       C  0.63393279  0.73971821  0.18869076     0.42040
N1694       N  0.66712036  0.75700998  0.15833829     0.00930
C1695       C  0.79028805  0.64180214  0.09185013    -0.06940
H1696       H  0.82032910  0.64746422  0.18222603     0.06420
C1697       C  0.84761482  0.78886257  0.17492648    -0.07300
Co1698     Co  0.70265045  0.68965107  0.13344468     0.74180
N1699       N  0.77521049  0.66925239  0.15941192    -0.26470
Co1700     Co  0.80351098  0.70037397  0.13273430     0.74070
C1701       C  0.86471439  0.75534393  0.18696850     0.42140
N1702       N  0.75967868  0.82773007  0.15651635     0.00550
N1703       N  0.83031094  0.73536622  0.15787782     0.00650
N1704       N  0.72477161  0.63554360  0.09230282    -0.47320
H1705       H  0.64641572  0.67481367  0.18228603     0.06410
N1706       N  0.73701423  0.66522861  0.15968692     0.00940
N1707       N  0.83099620  0.73372041  0.10619660     0.00680
C1708       C  0.86992832  0.75325165  0.07876232     0.42280
N1709       N  0.72155340  0.82321464  0.15668082    -0.25930
C1710       C  0.64386123  0.70102916  0.09161185    -0.06850
N1711       N  0.64483151  0.77062385  0.17548633    -0.47040
N1712       N  0.85604038  0.72122822  0.09005331    -0.47260
C1713       C  0.62506290  0.73470806  0.08068426     0.42060
N1714       N  0.73674768  0.66147483  0.10800266     0.00930
N1715       N  0.72128526  0.82213986  0.10547735    -0.25950
N1716       N  0.67049944  0.71881664  0.15900466    -0.26440
N1717       N  0.75954430  0.82625684  0.10504839     0.00570
H1718       H  0.67513140  0.84875554  0.08583024     0.06460
H1719       H  0.85590156  0.81762529  0.08577175     0.06490
N1720       N  0.77498622  0.66561661  0.10803012    -0.26490
N1721       N  0.82665523  0.77355922  0.15729856    -0.26110
N1722       N  0.66533647  0.75468366  0.10691014     0.00930
C1723       C  0.75592195  0.63477769  0.19072006     0.42330
C1724       C  0.70651904  0.84360821  0.17455691    -0.07360
N1725       N  0.82773050  0.77204928  0.10609676    -0.26100
H1726       H  0.85086781  0.81957760  0.17862704     0.06480
N1727       N  0.72441776  0.64407118  0.17775880    -0.47330
H1728       H  0.67598613  0.84477633  0.17913242     0.06460
C1729       C  0.73939575  0.86297778  0.07687606     0.42160
C1730       C  0.65009378  0.70513287  0.17752360    -0.06850
Co1731     Co  0.69328573  0.78969647  0.13172614     0.73820
N1732       N  0.77198386  0.85110430  0.17345822    -0.47040
C1733       C  0.75687654  0.62185807  0.08113512     0.42430
N1734       N  0.64015137  0.76681251  0.09091585    -0.47030
Co1735     Co  0.79386017  0.80058694  0.13115514     0.73890
C1736       C  0.85141064  0.78699495  0.08942533    -0.07360
C1737       C  0.78977056  0.65047708  0.17815029    -0.06920
N1738       N  0.66822450  0.71635722  0.10768770    -0.26450
N1739       N  0.85312562  0.72328720  0.17517245    -0.47210
H1740       H  0.82112608  0.63766097  0.08955635     0.06440
C1741       C  0.70594194  0.84440639  0.08848108    -0.07340
Cl1742     Cl  0.74834531  0.74505383  0.13200114    -0.50380
C1743       C  0.73998171  0.86244429  0.18549817     0.42190
H1744       H  0.63902696  0.67031470  0.08857658     0.06400
N1745       N  0.77154199  0.85074142  0.08838776    -0.47050
C1746       C  0.61618633  0.50926429  0.68692299     0.42040
N1747       N  0.58209005  0.98970015  0.65762005     0.00930
C1748       C  0.96002553  0.60877510  0.59252008    -0.06940
H1749       H  0.93302028  0.60555400  0.68293540     0.06420
C1750       C  0.90413028  0.96015889  0.67637577    -0.07300
Co1751     Co  0.54698533  0.55752072  0.63255174     0.74180
N1752       N  0.97650655  0.58044129  0.65995997    -0.26470
Co1753     Co  0.94674983  0.54980678  0.63398047     0.74070
C1754       C  0.88933305  0.49308379  0.68977287     0.42140
N1755       N  0.98741604  0.91976539  0.65610551     0.00550
N1756       N  0.92076530  0.51422402  0.65945722     0.00650
N1757       N  0.52584329  0.61265736  0.59204409    -0.47320
H1758       H  0.60053465  0.57324029  0.68002686     0.06410
N1759       N  0.51475089  0.58364672  0.65912680     0.00940
N1760       N  0.91797439  0.51843527  0.60786762     0.00680
C1761       C  0.88102531  0.50255940  0.57902535     0.42280
N1762       N  0.52569760  0.92291305  0.65651347    -0.25930
C1763       C  0.60226731  0.54470219  0.58944154    -0.06850
N1764       N  0.60476074  0.97716860  0.67492109    -0.47040
N1765       N  0.89393564  0.53295986  0.59187365    -0.47260
C1766       C  0.62009018  0.51100710  0.57799511     0.42060
N1767       N  0.51324731  0.58696346  0.60784183     0.00930
N1768       N  0.52600834  0.92510085  0.60518747    -0.25950
N1769       N  0.57857415  0.52790401  0.65760882    -0.26440
N1770       N  0.98767985  0.92222613  0.60482113     0.00570
H1771       H  0.57156513  0.89930346  0.58491020     0.06460
H1772       H  0.89444179  0.93727365  0.58410890     0.06490
N1773       N  0.97488511  0.58440274  0.60863913    -0.26490
N1774       N  0.92346273  0.97602070  0.65812432    -0.26110
N1775       N  0.58265201  0.99131396  0.60603982     0.00930
C1776       C  0.99822667  0.61768736  0.68904783     0.42330
C1777       C  0.53932324  0.89983824  0.67375637    -0.07360
N1778       N  0.92129498  0.98018616  0.60655976    -0.26100
H1779       H  0.90042783  0.92933918  0.67972347     0.06480
N1780       N  0.52885573  0.60624795  0.67592410    -0.47330
H1781       H  0.56971577  0.89532229  0.67781880     0.06460
C1782       C  0.00706541  0.88319370  0.57734266     0.42160
C1783       C  0.59849778  0.54270992  0.67564450    -0.06850
Co1784     Co  0.55485453  0.95678480  0.63135315     0.73820
N1785       N  0.97370083  0.89535166  0.67223559    -0.47040
C1786       C  0.99392975  0.62803454  0.58178748     0.42430
N1787       N  0.60694545  0.97900175  0.58947357    -0.47030
Co1788     Co  0.95429376  0.94899882  0.63117785     0.73890
C1789       C  0.89882508  0.96744021  0.58887036    -0.07360
C1790       C  0.96327943  0.60122278  0.67831614    -0.06920
N1791       N  0.57940532  0.52960144  0.60641079    -0.26450
N1792       N  0.89973060  0.52561704  0.67779026    -0.47210
H1793       H  0.92933742  0.61294884  0.58931221     0.06440
C1794       C  0.54083863  0.90234215  0.58823542    -0.07340
Cl1795     Cl  0.00071818  0.50325197  0.63204725    -0.50340
C1796       C  0.00458378  0.88142196  0.68408588     0.42190
H1797       H  0.60726477  0.57543872  0.58649389     0.06400
N1798       N  0.97525385  0.89739169  0.58862431    -0.47050
C1799       C  0.99591606  0.89079927  0.31382134     0.42040
N1800       N  0.51522234  0.92235159  0.34428038     0.00930
C1801       C  0.89948821  0.54296866  0.41224769    -0.06940
H1802       H  0.89842496  0.57150790  0.32196918     0.06420
C1803       C  0.53922133  0.60008838  0.32318972    -0.07300
Co1804     Co  0.94837840  0.95662009  0.37065178     0.74180
N1805       N  0.92335521  0.52735171  0.34445069    -0.26470
Co1806     Co  0.95541113  0.55699362  0.36950476     0.74070
C1807       C  0.00428505  0.61418942  0.31137011     0.42140
N1808       N  0.58316849  0.51696876  0.34269717     0.00550
N1809       N  0.98784116  0.58321285  0.34282362     0.00650
N1810       N  0.89549025  0.97728123  0.41227328    -0.47320
H1811       H  0.93156026  0.90366524  0.32222459     0.06410
N1812       N  0.92047551  0.98910038  0.34483436     0.00940
N1813       N  0.98893607  0.58629441  0.39438673     0.00680
C1814       C  0.00703828  0.62601543  0.42146258     0.42280
N1815       N  0.58012101  0.97872420  0.34350150    -0.25930
C1816       C  0.96378857  0.90055273  0.41302759    -0.06850
N1817       N  0.52780687  0.90146471  0.32618287    -0.47040
N1818       N  0.97566616  0.61059219  0.41058781    -0.47260
C1819       C  0.99818339  0.88275367  0.42363295     0.42060
N1820       N  0.92061973  0.99007098  0.39622520     0.00930
N1821       N  0.58212575  0.98021725  0.39481900    -0.25950
N1822       N  0.97698334  0.92531144  0.34476598    -0.26440
N1823       N  0.58483320  0.51859464  0.39432287     0.00570
H1824       H  0.61050092  0.93625736  0.41557059     0.06460
H1825       H  0.57201950  0.61314359  0.41422458     0.06490
N1826       N  0.92324132  0.52841266  0.39570190    -0.26490
N1827       N  0.52611708  0.58089555  0.34229666    -0.26110
N1828       N  0.51623958  0.92191002  0.39596574     0.00930
C1829       C  0.88653638  0.50663541  0.31516668     0.42330
C1830       C  0.60042473  0.96364067  0.32561663    -0.07360
N1831       N  0.52734115  0.58444367  0.39391402    -0.26100
H1832       H  0.56945754  0.60417635  0.31832583     0.06480
N1833       N  0.89790448  0.97546991  0.32786151    -0.47330
H1834       H  0.60389829  0.93292355  0.32215926     0.06460
C1835       C  0.62400674  0.50143987  0.42202216     0.42160
C1836       C  0.96217983  0.90620670  0.32634210    -0.06850
Co1837     Co  0.54900521  0.95009191  0.36979511     0.73820
N1838       N  0.60537714  0.52928636  0.32492626    -0.47040
C1839       C  0.88089910  0.50886832  0.42325548     0.42430
N1840       N  0.52953723  0.89717897  0.41197877    -0.47030
Co1841     Co  0.55613295  0.55091643  0.36840228     0.73890
C1842       C  0.54149939  0.60832881  0.41059659    -0.07360
C1843       C  0.90249700  0.54115150  0.32638378    -0.06920
N1844       N  0.97786390  0.92425021  0.39612478    -0.26450
N1845       N  0.97373083  0.60361131  0.32500733    -0.47210
H1846       H  0.89430743  0.57362264  0.41504571     0.06440
C1847       C  0.60565108  0.96669988  0.41178585    -0.07340
Cl1848     Cl  0.00230713  0.50364708  0.37002426    -0.50340
C1849       C  0.61681313  0.49714331  0.31310380     0.42190
H1850       H  0.93327527  0.89530759  0.41671750     0.06400
N1851       N  0.60956371  0.53231830  0.41016179    -0.47050
C1852       C  0.49374508  0.77163860  0.50064250     0.00150
C1853       C  0.49570171  0.73177239  0.50109635     0.00150
C1854       C  0.73161555  0.00530053  0.50078909     0.00150
C1855       C  0.77138496  0.00958391  0.50071316     0.00150
C1856       C  0.49843931  0.75472570  0.25210780    -0.02900
C1857       C  0.52712689  0.82123857  0.26549560    -0.09570
C1858       C  0.49633218  0.79361851  0.26602521     0.06620
C1859       C  0.96241915  0.80374216  0.27944535    -0.03340
C1860       C  0.96228012  0.83718018  0.29329033    -0.07790
C1861       C  0.99522420  0.86104093  0.29506775     0.05740
C1862       C  0.52721800  0.85392847  0.28015914    -0.02810
Br1863     Br  0.57148133  0.88822092  0.27845318    -0.02510
H1864       H  0.55174339  0.81787326  0.25384550     0.09650
H1865       H  0.93710492  0.84245074  0.30436252     0.07670
Br1866     Br  0.91728200  0.77097992  0.28408435    -0.02940
C1867       C  0.00101833  0.68135629  0.25857063    -0.09570
C1868       C  0.49965003  0.71873124  0.26927598     0.06620
C1869       C  0.50283098  0.71947290  0.29470586    -0.03340
C1870       C  0.50311959  0.68473735  0.30747198    -0.07790
C1871       C  0.00305376  0.64882818  0.29637683     0.05740
C1872       C  0.00247114  0.64694784  0.27178220    -0.02810
Br1873     Br  0.00335995  0.59802494  0.25561257    -0.02510
H1874       H  0.00041266  0.67883617  0.23952788     0.09650
H1875       H  0.50492610  0.68558079  0.32658812     0.07670
Br1876     Br  0.51310474  0.76269679  0.31557861    -0.02940
C1877       C  0.97320449  0.65135125  0.45681157    -0.09570
C1878       C  0.00434807  0.65487434  0.44084615     0.06620
C1879       C  0.53064406  0.68635246  0.44344304    -0.03340
C1880       C  0.52635354  0.71228195  0.46238006    -0.07790
C1881       C  0.49618785  0.70758400  0.47905512     0.05740
C1882       C  0.96898592  0.67701822  0.47573052    -0.02810
Br1883     Br  0.92427095  0.66932541  0.49571970    -0.02510
H1884       H  0.95212290  0.62801664  0.45476294     0.09650
H1885       H  0.54757407  0.73541042  0.46455667     0.07670
Br1886     Br  0.57166051  0.69697309  0.42121732    -0.02940
C1887       C  0.96686402  0.82636716  0.44429844    -0.09570
C1888       C  0.99914012  0.85149565  0.44179764     0.06620
C1889       C  0.53120894  0.84647174  0.45699084    -0.03340
C1890       C  0.52942216  0.81855139  0.47496780    -0.07790
C1891       C  0.49632764  0.79488729  0.47832410     0.05740
C1892       C  0.96537296  0.79798433  0.46213937    -0.02810
Br1893     Br  0.91985625  0.76549398  0.46365614    -0.02510
H1894       H  0.94241197  0.82889527  0.43239626     0.09650
H1895       H  0.55378308  0.81615990  0.48694259     0.07670
Br1896     Br  0.57716987  0.87856545  0.45569386    -0.02940
C1897       C  0.66657904  0.96822710  0.45144777    -0.09570
C1898       C  0.65463797  0.50314129  0.44065633     0.06620
C1899       C  0.67221357  0.53845774  0.44820079    -0.03340
C1900       C  0.69985305  0.53803526  0.46633839    -0.07790
C1901       C  0.70955016  0.00339276  0.47804004     0.05740
C1902       C  0.69338668  0.96816901  0.46998348    -0.02810
Br1903     Br  0.70655012  0.91903964  0.48380529    -0.02510
H1904       H  0.65439483  0.94062822  0.44597510     0.09650
H1905       H  0.71210235  0.56534470  0.47236633     0.07670
Br1906     Br  0.65900665  0.58888925  0.43591726    -0.02940
C1907       C  0.80223355  0.97514415  0.46681979    -0.09570
C1908       C  0.79275814  0.01040187  0.47774210     0.06620
C1909       C  0.80915035  0.54514463  0.46904647    -0.03340
C1910       C  0.83662571  0.54400817  0.45080044    -0.07790
C1911       C  0.84907343  0.50839267  0.44118951     0.05740
C1912       C  0.83094477  0.97355381  0.44926567    -0.02810
Br1913     Br  0.84540979  0.92227213  0.43908587    -0.02510
H1914       H  0.78979094  0.94823735  0.47353492     0.09650
H1915       H  0.84918954  0.57125712  0.44483454     0.07670
Br1916     Br  0.79570005  0.59479035  0.48199583    -0.02940
C1917       C  0.67741796  0.53624336  0.52265084    -0.09570
C1918       C  0.70633782  0.00733291  0.52234223     0.06620
C1919       C  0.70664129  0.97960428  0.54082249    -0.03340
C1920       C  0.67856203  0.98160934  0.55889816    -0.07790
C1921       C  0.64964561  0.51053216  0.55888477     0.05740
C1922       C  0.64912520  0.53776724  0.54028630    -0.02810
Br1923     Br  0.60840491  0.57519938  0.53602496    -0.02510
H1924       H  0.67622428  0.55783889  0.50876848     0.09650
H1925       H  0.67908407  0.96012023  0.57293769     0.07670
Br1926     Br  0.74254427  0.93706296  0.54187277    -0.02940
C1927       C  0.82927444  0.48273434  0.52153195    -0.09570
C1928       C  0.79729463  0.00842783  0.52221725     0.06620
C1929       C  0.79473963  0.03419618  0.54167702    -0.03340
C1930       C  0.82184746  0.03153980  0.56021315    -0.07790
C1931       C  0.85310796  0.50528171  0.55923380     0.05740
C1932       C  0.85759783  0.48222951  0.53904086    -0.02810
Br1933     Br  0.90441371  0.45359691  0.53259147    -0.02510
H1934       H  0.83341573  0.46325662  0.50686596     0.09650
H1935       H  0.81900944  0.05076505  0.57523766     0.07670
Br1936     Br  0.75867976  0.07651679  0.54318954    -0.02940
C1937       C  0.52745867  0.65850191  0.54758036    -0.09570
C1938       C  0.99531278  0.65812384  0.56294122     0.06620
C1939       C  0.96605257  0.68649455  0.55984959    -0.03340
C1940       C  0.96768748  0.71178611  0.54039585    -0.07790
C1941       C  0.49829365  0.70983040  0.52391786     0.05740
C1942       C  0.52930446  0.68404439  0.52835303    -0.02810
Br1943     Br  0.57565405  0.68311688  0.50932765    -0.02510
H1944       H  0.55107871  0.63824891  0.55026359     0.09650
H1945       H  0.94406154  0.73197530  0.53759926     0.07670
Br1946     Br  0.92438315  0.69417478  0.58198466    -0.02940
C1947       C  0.53201734  0.80102013  0.53361943    -0.09570
C1948       C  0.49587250  0.79537313  0.52272907     0.06620
C1949       C  0.96373310  0.81683344  0.53089763    -0.03340
C1950       C  0.96847328  0.84455367  0.54869883    -0.07790
C1951       C  0.00502322  0.85197465  0.55894463     0.05740
C1952       C  0.53702577  0.82883306  0.55148313    -0.02810
Br1953     Br  0.58841854  0.83171770  0.56444898    -0.02510
H1954       H  0.55691272  0.78447695  0.52757817     0.09650
H1955       H  0.94318570  0.86092123  0.55426713     0.07670
Br1956     Br  0.91232479  0.80929068  0.51877374    -0.02940
C1957       C  0.53121367  0.74135498  0.21137908    -0.09570
C1958       C  0.53561811  0.75003496  0.23582451     0.06620
C1959       C  0.57475878  0.74924961  0.24453014    -0.03340
C1960       C  0.60638394  0.74566030  0.22894519    -0.07790
C1961       C  0.60058128  0.74074972  0.20481310     0.05740
C1962       C  0.56278390  0.73782708  0.19609686    -0.02810
Br1963     Br  0.55268555  0.72915531  0.16317469    -0.02510
H1964       H  0.50318170  0.73645596  0.20342418     0.09650
H1965       H  0.63583973  0.74662390  0.23573244     0.07670
Br1966     Br  0.58922974  0.75193092  0.27712536    -0.02940
C1967       C  0.93239625  0.72584188  0.23674767    -0.09570
C1968       C  0.96116423  0.75564492  0.23602402     0.06620
C1969       C  0.95488415  0.78679945  0.21957585    -0.03340
C1970       C  0.92270903  0.78646286  0.20461059    -0.07790
C1971       C  0.89590497  0.75578443  0.20486487     0.05740
C1972       C  0.90055488  0.72559072  0.22141038    -0.02810
Br1973     Br  0.86319539  0.68416661  0.22492418    -0.02510
H1974       H  0.93325579  0.70284048  0.24970493     0.09650
H1975       H  0.91962965  0.80981055  0.19185846     0.07670
Br1976     Br  0.99033055  0.82955890  0.21408305    -0.02940
C1977       C  0.78001578  0.56262156  0.02590997    -0.09570
C1978       C  0.74636234  0.53981482  0.02360399     0.06620
C1979       C  0.71749441  0.54193583  0.04134186    -0.03340
C1980       C  0.72181964  0.56870757  0.05986123    -0.07790
C1981       C  0.75566591  0.59188548  0.06208182     0.05740
C1982       C  0.78599494  0.58648636  0.04540209    -0.02810
Br1983     Br  0.83744894  0.60762300  0.04759784    -0.02510
H1984       H  0.80293569  0.56039191  0.01276443     0.09650
H1985       H  0.69853896  0.57117273  0.07272746     0.07670
Br1986     Br  0.67126494  0.51032622  0.04108954    -0.02940
C1987       C  0.71349436  0.92478676  0.02334768    -0.09570
C1988       C  0.74428543  0.95191886  0.02275084     0.06620
C1989       C  0.77282152  0.95000381  0.04067650    -0.03340
C1990       C  0.76994895  0.92134431  0.05828241    -0.07790
C1991       C  0.73957039  0.89377004  0.05843522     0.05740
C1992       C  0.71110896  0.89580021  0.04061690    -0.02810
Br1993     Br  0.67070824  0.85773983  0.03674195    -0.02510
H1994       H  0.69165194  0.92523433  0.00960373     0.09650
H1995       H  0.79226453  0.92010963  0.07172326     0.07670
Br1996     Br  0.81845583  0.98232591  0.04154089    -0.02940
C1997       C  0.77720551  0.54077447  0.96501285    -0.09570
C1998       C  0.74357797  0.54044612  0.97922538     0.06620
C1999       C  0.71321254  0.56638221  0.97364876    -0.03340
C2000       C  0.71754020  0.59297524  0.95507552    -0.07790
C2001       C  0.75175478  0.59457576  0.94146001     0.05740
C2002       C  0.78134366  0.56702342  0.94610519    -0.02810
Br2003     Br  0.82691794  0.56134150  0.92675856    -0.02510
H2004       H  0.80076696  0.52097051  0.96895268     0.09650
H2005       H  0.69401664  0.61303328  0.95150242     0.07670
Br2006     Br  0.66459837  0.56672534  0.99029202    -0.02940
C2007       C  0.77658792  0.90360846  0.95439841    -0.09570
C2008       C  0.74261617  0.90071106  0.94084156     0.06620
C2009       C  0.71211856  0.92745357  0.94520356    -0.03340
C2010       C  0.71500747  0.95374005  0.96405917    -0.07790
C2011       C  0.74822538  0.95480570  0.97841790     0.05740
C2012       C  0.77969581  0.93027725  0.97281308    -0.02810
Br2013     Br  0.82820647  0.93193876  0.98926582    -0.02510
H2014       H  0.80090639  0.88443340  0.95096293     0.09650
H2015       H  0.69074237  0.97273648  0.96795854     0.07670
Br2016     Br  0.66686862  0.93188224  0.92568053    -0.02940
C2017       C  0.00995574  0.71956860  0.71213276    -0.09570
C2018       C  0.00169510  0.71552006  0.73667808     0.06620
C2019       C  0.99749860  0.67632905  0.74516170    -0.03340
C2020       C  0.99542542  0.64508327  0.72934666    -0.07790
C2021       C  0.99986514  0.65095341  0.70513653     0.05740
C2022       C  0.00813455  0.68831242  0.69659148    -0.02810
Br2023     Br  0.01650014  0.69846432  0.66356034    -0.02510
H2024       H  0.01868488  0.74697144  0.70436844     0.09650
H2025       H  0.99087536  0.61579864  0.73604225     0.07670
Br2026     Br  0.99389046  0.66154856  0.77775510    -0.02940
C2027       C  0.53312516  0.84808889  0.71885537    -0.09570
C2028       C  0.00264467  0.85093963  0.70265508     0.06620
C2029       C  0.97107349  0.82482099  0.70470362    -0.03340
C2030       C  0.97152426  0.79582477  0.72193875    -0.07790
C2031       C  0.00328897  0.79038299  0.73755022     0.05740
C2032       C  0.53369263  0.81934103  0.73651911    -0.02810
Br2033     Br  0.57486618  0.82819709  0.75895437    -0.02510
H2034       H  0.55653052  0.86936085  0.71817193     0.09650
H2035       H  0.94738932  0.77538003  0.72219124     0.07670
Br2036     Br  0.92738495  0.82418942  0.68358100    -0.02940
C2037       C  0.57284117  0.74023900  0.75946447    -0.09570
C2038       C  0.53603613  0.74701902  0.77028459     0.06620
C2039       C  0.53502190  0.74542254  0.79571257    -0.03340
C2040       C  0.56972558  0.74474964  0.80833964    -0.07790
C2041       C  0.60554485  0.74164470  0.79707907     0.05740
C2042       C  0.60714937  0.73760515  0.77258027    -0.02810
Br2043     Br  0.65569396  0.73095557  0.75628714    -0.02510
H2044       H  0.57533587  0.73912948  0.74042118     0.09650
H2045       H  0.56882954  0.74520045  0.82748873     0.07670
Br2046     Br  0.49118635  0.73732805  0.81664887    -0.02940
C2047       C  0.91863947  0.79011618  0.79488340    -0.09570
C2048       C  0.89309517  0.75832084  0.79540544     0.06620
C2049       C  0.89797713  0.72856526  0.77881100    -0.03340
C2050       C  0.93061423  0.72889435  0.76398957    -0.07790
C2051       C  0.96105673  0.75663137  0.76668973     0.05740
C2052       C  0.95221064  0.78979354  0.78093156    -0.02810
Br2053     Br  0.98595524  0.83365453  0.78597010    -0.02510
H2054       H  0.91442417  0.81417917  0.80690548     0.09650
H2055       H  0.93179784  0.70644286  0.75080142     0.07670
Br2056     Br  0.86058975  0.68732689  0.77514365    -0.02940
C2057       C  0.82250068  0.49156779  0.74289808    -0.09570
C2058       C  0.78508643  0.49229036  0.73224983     0.06620
C2059       C  0.78412673  0.48781882  0.70692675    -0.03340
C2060       C  0.81874262  0.48875869  0.69398043    -0.07790
C2061       C  0.85475340  0.49133924  0.70490179     0.05740
C2062       C  0.85685371  0.49136109  0.72952081    -0.02810
Br2063     Br  0.90593447  0.49258908  0.74549465    -0.02510
H2064       H  0.82515498  0.49325933  0.76189612     0.09650
H2065       H  0.81774421  0.48669170  0.67488127     0.07670
Br2066     Br  0.74077587  0.47568079  0.68655914    -0.02940
C2067       C  0.70737203  0.53368835  0.72094337    -0.09570
C2068       C  0.71018166  0.50134591  0.73634762     0.06620
C2069       C  0.67565074  0.97839321  0.73942490    -0.03340
C2070       C  0.64555938  0.98138959  0.72291262    -0.07790
C2071       C  0.64649345  0.50979703  0.70518146     0.05740
C2072       C  0.67666001  0.53776501  0.70520647    -0.02810
Br2073     Br  0.68269715  0.57798272  0.68175883    -0.02510
H2074       H  0.73140553  0.55397217  0.71935582     0.09650
H2075       H  0.62049452  0.96218761  0.72438119     0.07670
Br2076     Br  0.66189147  0.94845027  0.76706126    -0.02940
C2077       C  0.72271742  0.53897482  0.78226560    -0.09570
C2078       C  0.75146807  0.53533111  0.76443228     0.06620
C2079       C  0.77791944  0.56748241  0.76173734    -0.03340
C2080       C  0.77932074  0.59667880  0.77905050    -0.07790
C2081       C  0.75297133  0.59716568  0.79796748     0.05740
C2082       C  0.72366101  0.56840042  0.79904724    -0.02810
Br2083     Br  0.68567750  0.56469228  0.82402895    -0.02510
H2084       H  0.70049246  0.51681143  0.78421022     0.09650
H2085       H  0.80006476  0.62034329  0.77712027     0.07670
Br2086     Br  0.80772395  0.57988626  0.73380083    -0.02940
C2087       C  0.76407499  0.96484352  0.79003668    -0.09570
C2088       C  0.75220457  0.96029100  0.76616975     0.06620
C2089       C  0.74644152  0.92105694  0.75846519    -0.03340
C2090       C  0.74515178  0.89042429  0.77487362    -0.07790
C2091       C  0.75193639  0.89708138  0.79874951     0.05740
C2092       C  0.76279940  0.93430072  0.80621009    -0.02810
Br2093     Br  0.77472285  0.94548067  0.83860798    -0.02510
H2094       H  0.77473980  0.99227756  0.79669794     0.09650
H2095       H  0.73872434  0.86111589  0.76895279     0.07670
Br2096     Br  0.73760767  0.90546412  0.72660931    -0.02940
C2097       C  0.53770249  0.71786047  0.04031013    -0.09570
C2098       C  0.54592088  0.74457941  0.02197777     0.06620
C2099       C  0.58029763  0.76753632  0.02366559    -0.03340
C2100       C  0.60545996  0.76286569  0.04268131    -0.07790
C2101       C  0.59754596  0.73612766  0.06068374     0.05740
C2102       C  0.56294637  0.71385632  0.05968104    -0.02810
Br2103     Br  0.54746270  0.67996697  0.08502582    -0.02510
H2104       H  0.51181040  0.69979777  0.03949238     0.09650
H2105       H  0.63155944  0.78061832  0.04351706     0.07670
Br2106     Br  0.59406742  0.80840324  0.00194573    -0.02940
C2107       C  0.92366039  0.72647954  0.02291848    -0.09570
C2108       C  0.95639723  0.75143277  0.02315323     0.06620
C2109       C  0.96005293  0.77791473  0.04218219    -0.03340
C2110       C  0.93218862  0.77763616  0.06051148    -0.07790
C2111       C  0.89950355  0.75286094  0.05970364     0.05740
C2112       C  0.89472845  0.72849334  0.04017376    -0.02810
Br2113     Br  0.84589716  0.70361046  0.03381720    -0.02510
H2114       H  0.91897626  0.70692282  0.00825461     0.09650
H2115       H  0.93543791  0.79767457  0.07510546     0.07670
Br2116     Br  0.99921514  0.81790713  0.04321128    -0.02940
C2117       C  0.58958929  0.70857138  0.95341044    -0.09570
C2118       C  0.59404055  0.74127342  0.93864746     0.06620
C2119       C  0.56901996  0.77345026  0.94213808    -0.03340
C2120       C  0.54264026  0.77335379  0.96109018    -0.07790
C2121       C  0.54136838  0.74225255  0.97724793     0.05740
C2122       C  0.56359033  0.70880972  0.97246507    -0.02810
Br2123     Br  0.55911164  0.66236154  0.99121906    -0.02510
H2124       H  0.60734097  0.68301211  0.95072691     0.09650
H2125       H  0.52518864  0.79899948  0.96428084     0.07670
Br2126     Br  0.56943973  0.81894859  0.92231898    -0.02940
C2127       C  0.95274250  0.72065663  0.96520216    -0.09570
C2128       C  0.95790618  0.75443256  0.97873173     0.06620
C2129       C  0.93622965  0.78779359  0.97304660    -0.03340
C2130       C  0.90877653  0.78652557  0.95492602    -0.07790
C2131       C  0.90203549  0.75227380  0.94198632     0.05740
C2132       C  0.92519677  0.71920369  0.94701373    -0.02810
Br2133     Br  0.92107472  0.67082062  0.93029026    -0.02510
H2134       H  0.96900596  0.69468146  0.96956504     0.09650
H2135       H  0.89200523  0.81246703  0.95144870     0.07670
Br2136     Br  0.94277621  0.83593091  0.98961902    -0.02940
C2137       C  0.86058828  0.00628979  0.27461786    -0.09570
C2138       C  0.85381091  0.50589226  0.29886067     0.06620
C2139       C  0.81572070  0.50546830  0.30741102    -0.03340
C2140       C  0.78484207  0.50344727  0.29170115    -0.07790
C2141       C  0.79041741  0.49866600  0.26694623     0.05740
C2142       C  0.82968917  0.00340747  0.25862148    -0.02810
Br2143     Br  0.84569425  0.00422578  0.22617974    -0.02510
H2144       H  0.89026115  0.00818890  0.26808121     0.09650
H2145       H  0.75653136  0.50616385  0.29969258     0.07670
Br2146     Br  0.80429041  0.50803892  0.34061838    -0.02940
C2147       C  0.68659361  0.52296042  0.26294233    -0.09570
C2148       C  0.71543858  0.49366007  0.26525800     0.06620
C2149       C  0.70668191  0.96275542  0.28152825    -0.03340
C2150       C  0.67411184  0.96452020  0.29617157    -0.07790
C2151       C  0.64854714  0.49589768  0.29541588     0.05740
C2152       C  0.65432617  0.52485212  0.27816999    -0.02810
Br2153     Br  0.61820828  0.56673051  0.27389543    -0.02510
H2154       H  0.68821515  0.54477998  0.24926172     0.09650
H2155       H  0.66975381  0.94154048  0.30906700     0.07670
Br2156     Br  0.73859641  0.91804363  0.28731731    -0.02940
C2157       C  0.75696772  0.56756202  0.24370825    -0.09570
C2158       C  0.75640755  0.53015313  0.23302108     0.06620
C2159       C  0.75971640  0.52951847  0.20757790    -0.03340
C2160       C  0.75834987  0.56418100  0.19475335    -0.07790
C2161       C  0.75666469  0.60010858  0.20579943     0.05740
C2162       C  0.75676284  0.60199865  0.23043113    -0.02810
Br2163     Br  0.75591742  0.65092541  0.24658606    -0.02510
H2164       H  0.75634462  0.56999940  0.26276424     0.09650
H2165       H  0.76012705  0.56332739  0.17562942     0.07670
Br2166     Br  0.77328400  0.48687534  0.18695253    -0.02940
C2167       C  0.77343810  0.89373146  0.21883744    -0.09570
C2168       C  0.74071457  0.89204457  0.20424576     0.06620
C2169       C  0.71148944  0.92022939  0.20685864    -0.03340
C2170       C  0.71698547  0.95070021  0.22262189    -0.07790
C2171       C  0.75167712  0.95534483  0.23593011     0.05740
C2172       C  0.77906122  0.92397425  0.23500155    -0.02810
Br2173     Br  0.82303550  0.91508743  0.25529483    -0.02510
H2174       H  0.79512880  0.87099269  0.21758301     0.09650
H2175       H  0.69496371  0.97315549  0.22295832     0.07670
Br2176     Br  0.66647335  0.92398381  0.18696826    -0.02940
loop_ 
_geom_bond_atom_site_label_1 
_geom_bond_atom_site_label_2 
_geom_bond_distance 
_geom_bond_site_symmetry_2 
_ccdc_geom_bond_type 
C1          C539   1.557       .  S
C1         C1053   1.572       .  S
C1         C1060   1.583       .  S
C1         C1070   1.575       .  S
C2          C476   1.506       .  S
C2          C496   1.498   1_554  S
C2         C1091   1.375       .  D
C3          C466   1.506       .  S
C3          C489   1.499   1_554  S
C3         C1090   1.375   1_455  D
C4          C456   1.573       .  S
C4          C970   1.564       .  S
C4          C980   1.554       .  S
C4          C990   1.576       .  S
C5          C406   1.561       .  S
C5         C1474   1.585       .  S
C5         C1487   1.577       .  S
C5         C1507   1.564   1_455  S
C6          C356   1.499       .  S
C6          C379   1.498   1_554  S
C6          C551   1.371       .  D
C7          C346   1.493       .  S
C7          C366   1.500   1_554  S
C7          C550   1.371   1_545  D
C8           N26   1.353       .  A
C8           C45   1.466       .  S
C8          C376   1.488       .  S
N9           N26   1.323       .  A
N9           N31   1.320       .  A
N9          Co46   2.088       .  S
C10          N35   1.339       .  A
C10          C48   1.457       .  S
C10          H55   1.081       .  S
H11          C52   1.081       .  S
C12          N36   1.342       .  A
C12          C16   1.466       .  S
C12          H41   1.080       .  S
Co13         N31   2.090       .  S
Co13         N21   2.087       .  S
Co13         N53   2.081       .  S
Co13         N29   2.077       .  S
Co13        Cl57   2.453       .  S
N14          C52   1.341       .  A
N14          N21   1.320       .  A
N14         Co15   2.087       .  S
Co15         N18   2.092       .  S
Co15         N35   2.077       .  S
Co15         N22   2.068       .  S
Co15        Cl57   2.444       .  S
C16          N54   1.353       .  A
C16         C369   1.489       .  S
N17          N24   1.320       .  A
N17          N47   1.325       .  A
N17         Co50   2.096       .  S
N18          N36   1.321       .  A
N18          N54   1.325       .  A
N19          C48   1.350       .  A
N19          N29   1.322       .  A
H20          C45   1.079       .  S
N21          N42   1.324       .  A
N22          N40   1.317       .  A
N22          N27   1.320       .  A
C23          N27   1.344       .  A
C23          C51   1.466       .  S
C23         C449   1.479       .  S
N24          C39   1.340       .  A
N24         Co46   2.082       .  S
C25          N53   1.342       .  A
C25          C28   1.459       .  S
C25          H59   1.081       .  S
C28          N49   1.344       .  A
C28         C459   1.462       .  S
N29          N35   1.317       .  A
N30          C56   1.335       .  A
N30          N32   1.318       .  A
N30         Co46   2.069       .  S
N31          C45   1.342       .  A
N32          N60   1.326       .  A
N32         Co50   2.087       .  S
H33          C56   1.081       .  S
H34          C51   1.081       .  S
N36         Co50   2.094       .  S
N37          N49   1.321       .  A
N37          N53   1.317       .  A
N37         Co46   2.067       .  S
C38          N42   1.350       .  A
C38          C52   1.465       .  S
C38         C486   1.487       .  S
C39          C58   1.465       .  S
C39          H43   1.081       .  S
N40          C51   1.346       .  A
N40         Co50   2.091       .  S
C44          N60   1.353       .  A
C44          C56   1.454       .  S
C44         C416   1.473       .  S
Co46        Cl57   2.444       .  S
N47          C58   1.352       .  A
C48         C409   1.460       .  S
Co50        Cl57   2.456       .  S
C58         C499   1.492       .  S
C61          N79   1.347       .  A
C61          C98   1.459       .  S
C61         C329   1.462       .  S
N62          N79   1.322       .  A
N62          N84   1.318       .  A
N62         Co99   2.075       .  S
C63          N88   1.338       .  A
C63         C101   1.467       .  S
C63         H108   1.076       .  S
H64         C105   1.081       .  S
C65          N89   1.341       .  A
C65          C69   1.463       .  S
C65          H94   1.081       .  S
Co66         N84   2.080       .  S
Co66         N74   2.079       .  S
Co66        N106   2.094       .  S
Co66         N82   2.096       .  S
Co66       Cl110   2.460       .  S
N67         C105   1.340       .  A
N67          N74   1.318       .  A
N67         Co68   2.082       .  S
Co68         N71   2.081       .  S
Co68         N88   2.087       .  S
Co68         N75   2.104       .  S
Co68       Cl110   2.444       .  S
C69         N107   1.349       .  A
C69         C339   1.478       .  S
N70          N77   1.317       .  A
N70         N100   1.323       .  A
N70        Co103   2.078       .  S
N71          N89   1.318       .  A
N71         N107   1.324       .  A
N72         C101   1.355       .  A
N72          N82   1.326       .  A
H73          C98   1.081       .  S
N74          N95   1.323       .  A
N75          N93   1.321       .  A
N75          N80   1.326       .  A
C76          N80   1.354       .  A
C76         C104   1.456       .  S
C76         C479   1.479       .  S
N77          C92   1.337       .  A
N77         Co99   2.068       .  S
C78         N106   1.346       .  A
C78          C81   1.464       .  S
C78         H112   1.081       .  S
C81         N102   1.349       .  A
C81         C469   1.479       .  S
N82          N88   1.320       .  A
N83         C109   1.339       .  A
N83          N85   1.320       .  A
N83         Co99   2.083       .  S
N84          C98   1.341       .  A
N85         N113   1.325       .  A
N85        Co103   2.090       .  S
H86         C109   1.080       .  S
H87         C104   1.081       .  S
N89        Co103   2.083       .  S
N90         N102   1.323       .  A
N90         N106   1.321       .  A
N90         Co99   2.087       .  S
C91          N95   1.349       .  A
C91         C105   1.460       .  S
C91         C529   1.463       .  S
C92         C111   1.457       .  S
C92          H96   1.080       .  S
N93         C104   1.342       .  A
N93        Co103   2.082       .  S
C97         N113   1.352       .  A
C97         C109   1.463       .  S
C97         C359   1.484       .  S
Co99       Cl110   2.440       .  S
N100        C111   1.350       .  A
C101        C349   1.495       .  S
Co103      Cl110   2.459       .  S
C111        C536   1.473       .  S
C114        N676   1.354   1_545  A
C114        C151   1.450       .  S
C114        C439   1.471       .  S
N115        N132   1.326       .  A
N115        N681   1.318       .  A
N115       Co152   2.093       .  S
C116        N141   1.341       .  A
C116        C154   1.464       .  S
C116        H161   1.080       .  S
H117        C158   1.081       .  S
C118        N142   1.339       .  A
C118        C666   1.456       .  S
C118        H147   1.081       .  S
Co119       N137   2.059       .  S
Co119       N127   2.074       .  S
Co119       N159   2.088       .  S
Co119       N135   2.083       .  S
Co119     Cl1251   2.442       .  S
N120        C158   1.342       .  A
N120       N1215   1.317       .  A
N120       Co121   2.081       .  S
Co121       N124   2.082       .  S
Co121       N141   2.090       .  S
Co121       N128   2.083       .  S
Co121      Cl163   2.456       .  S
C122        N160   1.351   1_565  A
C122        C429   1.462       .  S
C122        C662   1.456       .  S
N123        N153   1.321       .  A
N123       N1218   1.318       .  A
N123       Co156   2.077       .  S
N124        N160   1.324       .  A
N124        N686   1.318   1_545  A
N125       C1242   1.351   1_455  A
N125        N135   1.324       .  A
H126        C151   1.080       .  S
N127        N148   1.322       .  A
N127       N1208   1.317   1_455  A
N128        N133   1.326       .  A
N128        N690   1.321   1_545  A
C129        N133   1.349       .  A
C129        C299   1.481       .  S
C129        C701   1.464   1_545  S
N130        C145   1.343       .  A
N130       N1211   1.318   1_455  A
N130       Co152   2.086       .  S
C131        N159   1.340       .  A
C131        C134   1.464       .  S
C131        H165   1.081       .  S
N132        C658   1.354       .  A
C134        N699   1.350   1_545  A
C134        C289   1.481       .  S
N135       N1229   1.320   1_455  A
N136        C162   1.341       .  A
N136       N1226   1.319   1_455  A
N136       Co152   2.092       .  S
N137        C151   1.333       .  A
N137        N659   1.318   1_545  A
N138        N166   1.325       .  A
N138       N1224   1.319       .  A
N138       Co156   2.096       .  S
H139        C162   1.076       .  S
H140        C157   1.081       .  S
N141       N1223   1.320       .  A
N142        N668   1.318       .  A
N142       Co156   2.078       .  S
N143        N155   1.325       .  A
N143        N703   1.320       .  A
N143       Co152   2.083       .  S
C144       N1236   1.346       .  A
C144        C158   1.459       .  S
C144        C389   1.465       .  S
C145       C1252   1.465       .  S
C145        H149   1.081       .  S
N146        C157   1.341       .  A
N146        N672   1.321       .  A
N146       Co156   2.096       .  S
N148       C1232   1.346   1_455  A
C150        N166   1.357       .  A
C150        C319   1.499       .  S
C150       C1250   1.469       .  S
Co152     Cl1795   2.456       .  S
N153        C164   1.346       .  A
C154       N1213   1.351       .  A
C154        C306   1.484       .  S
N155        C678   1.350       .  A
Co156      Cl707   2.446       .  S
C157        C673   1.464       .  S
N159        N687   1.320   1_545  A
C162       C1238   1.469       .  S
Cl163     Co1207   2.442       .  S
Cl163     Co1784   2.456   1_545  S
Cl163      Co700   2.446   1_545  S
C164        C396   1.482       .  S
C164       C1233   1.465       .  S
C167       N1273   1.352       .  A
C167        C204   1.458       .  S
C167        C229   1.477       .  S
N168        N185   1.326       .  A
N168       N1278   1.317   1_455  A
N168       Co205   2.087       .  S
C169        N194   1.340       .  A
C169        C207   1.466       .  S
C169        H214   1.081       .  S
H170        C211   1.081       .  S
C171        N195   1.340       .  A
C171       C1263   1.460       .  S
C171        H200   1.081       .  S
Co172       N190   2.069       .  S
Co172       N180   2.077       .  S
Co172       N212   2.087       .  S
Co172       N188   2.083       .  S
Co172      Cl760   2.450       .  S
N173        C211   1.339       .  A
N173        N724   1.317   1_545  A
N173       Co174   2.067       .  S
Co174       N177   2.074       .  S
Co174       N194   2.085       .  S
Co174       N181   2.082       .  S
Co174      Cl216   2.445       .  S
C175        N213   1.347       .  A
C175        C239   1.460       .  S
C175       C1259   1.460       .  S
N176        N206   1.327       .  A
N176        N727   1.317   1_545  A
N176       Co209   2.086       .  S
N177        N213   1.322       .  A
N177       N1283   1.317       .  A
N178        C751   1.350       .  A
N178        N188   1.323       .  A
H179        C204   1.081       .  S
N180        N201   1.323       .  A
N180        N717   1.317       .  A
N181        N186   1.324       .  A
N181       N1287   1.320       .  A
C182        N186   1.350       .  A
C182        C246   1.485       .  S
C182       C1298   1.467       .  S
N183        C198   1.335       .  A
N183        N720   1.317       .  A
N183       Co205   2.071       .  S
C184        N212   1.341       .  A
C184        C187   1.463       .  S
C184        H218   1.081       .  S
N185       C1255   1.352   1_455  A
C187       N1296   1.351       .  A
C187        C256   1.485       .  S
N188        N738   1.319       .  A
N189        C215   1.341       .  A
N189        N735   1.321       .  A
N189       Co205   2.094       .  S
N190        C204   1.336       .  A
N190       N1256   1.317       .  A
N191        N219   1.324       .  A
N191        N733   1.321   1_545  A
N191       Co209   2.091       .  S
H192        C215   1.080       .  S
H193        C210   1.080       .  S
N194        N732   1.319   1_545  A
N195       N1265   1.317   1_455  A
N195       Co209   2.079       .  S
N196        N208   1.325       .  A
N196       N1300   1.320   1_455  A
N196       Co205   2.089       .  S
C197        N745   1.348   1_545  A
C197        C211   1.453       .  S
C197        C506   1.458       .  S
C198        C761   1.458       .  S
C198        H202   1.081       .  S
N199        C210   1.344       .  A
N199       N1269   1.320   1_455  A
N199       Co209   2.098       .  S
N201        C741   1.348       .  A
C203        N219   1.351       .  A
C203        C266   1.494       .  S
C203        C759   1.469   1_545  S
Co205     Cl1848   2.446       .  S
N206        C217   1.352   1_545  A
C207        N722   1.350   1_545  A
C207        C279   1.489       .  S
N208       C1275   1.351   1_455  A
Co209     Cl1304   2.454       .  S
C210       C1270   1.467       .  S
N212       N1284   1.320       .  A
C215        C747   1.469       .  S
Cl216      Co716   2.450   1_545  S
Cl216     Co1837   2.446   1_545  S
Cl216     Co1297   2.454       .  S
C217        C519   1.478       .  S
C217        C742   1.458       .  S
C220        C259   1.495       .  S
C220        C316   1.498       .  S
C220        C221   1.371       .  D
C221        C249   1.502       .  S
C221        C309   1.497       .  S
C222        C269   1.499       .  S
C222        C286   1.497       .  S
C222        C223   1.372       .  D
C223        C276   1.491       .  S
C223        C296   1.512       .  S
C224        C226   1.555       .  S
C224        C236   1.571       .  S
C224        C326   1.581   1_655  S
C224       C1424   1.575       .  S
C225        H232   1.077       .  S
C225        C226   1.416   1_455  A
C225        C230   1.399       .  A
C226       C1315   1.433       .  A
C227        C228   1.393       .  A
C227       C1314   1.433       .  A
C227       Br234   1.926       .  S
C228        H233   1.082       .  S
C228        C229   1.397       .  A
C229       C1318   1.406       .  A
C230       C1317   1.406   1_455  A
C230       Br231   1.919       .  S
C235        H242   1.083       .  S
C235        C240   1.398       .  A
C235       C1324   1.422       .  A
C236        C237   1.446   1_655  A
C236       C1323   1.422   1_655  A
C237        C238   1.393       .  A
C237       Br244   1.933       .  S
C238        H243   1.086       .  S
C238       C1327   1.386       .  A
C239        C240   1.395       .  A
C239       C1326   1.386       .  A
C240       Br241   1.917       .  S
C245        H252   1.084       .  S
C245        C246   1.402       .  A
C245        C250   1.398       .  A
C246       C1335   1.413       .  A
C247        C248   1.404       .  A
C247       C1334   1.413       .  A
C247       Br254   1.917       .  S
C248        H253   1.082       .  S
C248        C249   1.407   1_455  A
C249       C1338   1.415       .  A
C250       C1337   1.415       .  A
C250       Br251   1.920       .  S
C255        H262   1.083       .  S
C255        C256   1.407       .  A
C255        C260   1.402       .  A
C256       C1345   1.411       .  A
C257        C258   1.397       .  A
C257       C1344   1.411   1_455  A
C257       Br264   1.921       .  S
C258        H263   1.082       .  S
C258        C259   1.405   1_455  A
C259       C1348   1.411       .  A
C260       C1347   1.411       .  A
C260       Br261   1.916       .  S
C265        H272   1.081       .  S
C265        C270   1.399       .  A
C265        C810   1.408       .  A
C266        C267   1.420       .  A
C266        C809   1.408   1_545  A
C267        C268   1.402       .  A
C267       Br274   1.921       .  S
C268        H273   1.083       .  S
C268        C813   1.402       .  A
C269        C270   1.406       .  A
C269        C812   1.402       .  A
C270       Br271   1.915       .  S
C275        H282   1.083       .  S
C275        C276   1.401       .  A
C275        C280   1.399       .  A
C276        C821   1.403       .  A
C277        C278   1.397       .  A
C277        C820   1.403       .  A
C277       Br284   1.916       .  S
C278        H283   1.081       .  S
C278        C279   1.408       .  A
C279        C824   1.419   1_545  A
C280        C823   1.419       .  A
C280       Br281   1.922       .  S
C285        H292   1.080       .  S
C285        C290   1.392       .  A
C285        C830   1.408       .  A
C286        C287   1.413       .  A
C286        C829   1.408       .  A
C287        C288   1.405       .  A
C287       Br294   1.917       .  S
C288        H293   1.083       .  S
C288        C833   1.408       .  A
C289        C290   1.407       .  A
C289        C832   1.408   1_545  A
C290       Br291   1.920       .  S
C295        H302   1.078       .  S
C295        C300   1.392       .  A
C295        C840   1.413   1_565  A
C296        C297   1.419       .  A
C296        C839   1.413       .  A
C297        C298   1.409       .  A
C297       Br304   1.916       .  S
C298        H303   1.083       .  S
C298        C843   1.406       .  A
C299        C300   1.402   1_545  A
C299        C842   1.406       .  A
C300       Br301   1.923       .  S
C305        H312   1.082       .  S
C305        C310   1.397       .  A
C305       C1394   1.402   1_455  A
C306        C307   1.414       .  A
C306       C1393   1.402       .  A
C307        C308   1.402       .  A
C307       Br314   1.918       .  S
C308        H313   1.082       .  S
C308       C1397   1.404       .  A
C309        C310   1.411   1_655  A
C309       C1396   1.404       .  A
C310       Br311   1.918       .  S
C315        H322   1.084       .  S
C315        C316   1.401   1_455  A
C315        C320   1.405       .  A
C316       C1405   1.408       .  A
C317        C318   1.399       .  A
C317       C1404   1.408       .  A
C317       Br324   1.913       .  S
C318        H323   1.083       .  S
C318        C319   1.407       .  A
C319       C1408   1.423       .  A
C320       C1407   1.423       .  A
C320       Br321   1.916       .  S
C325        H332   1.077       .  S
C325        C326   1.426       .  A
C325        C330   1.390       .  A
C326        C327   1.434       .  A
C327        C328   1.403       .  A
C327       Br334   1.917       .  S
C328        H333   1.084       .  S
C328        C329   1.393       .  A
C329        C330   1.394       .  A
C330       Br331   1.923       .  S
C335        H342   1.077       .  S
C335        C336   1.419       .  A
C335        C340   1.399       .  A
C336       C1312   1.575       .  S
C336        C337   1.434       .  A
C337        C338   1.395       .  A
C337       Br344   1.925       .  S
C338        H343   1.083       .  S
C338        C339   1.395       .  A
C339        C340   1.406       .  A
C340       Br341   1.919       .  S
C345        H352   1.084       .  S
C345        C346   1.399       .  A
C345        C350   1.393       .  A
C346        C347   1.411       .  A
C347        C348   1.405       .  A
C347       Br354   1.918       .  S
C348        H353   1.083       .  S
C348        C349   1.411       .  A
C349        C350   1.416       .  A
C350       Br351   1.911       .  S
C355        H362   1.084       .  S
C355        C356   1.405       .  A
C355        C360   1.395       .  A
C356        C357   1.416       .  A
C357        C358   1.402       .  A
C357       Br364   1.916       .  S
C358        H363   1.083       .  S
C358        C359   1.405       .  A
C359        C360   1.410       .  A
C360       Br361   1.914       .  S
C365        H372   1.083       .  S
C365        C366   1.404       .  A
C365        C370   1.404       .  A
C366        C367   1.411       .  A
C367        C368   1.398       .  A
C367       Br374   1.913       .  S
C368        H373   1.083       .  S
C368        C369   1.403       .  A
C369        C370   1.417       .  A
C370       Br371   1.917       .  S
C375        H382   1.083       .  S
C375        C376   1.403       .  A
C375        C380   1.395       .  A
C376        C377   1.418       .  A
C377        C378   1.405       .  A
C377       Br384   1.917       .  S
C378        H383   1.083       .  S
C378        C379   1.404       .  A
C379        C380   1.409       .  A
C380       Br381   1.913       .  S
C385        H392   1.078       .  S
C385        C386   1.424       .  A
C385        C390   1.392       .  A
C386       C1093   1.585       .  S
C386        C387   1.434       .  A
C387        C388   1.402       .  A
C387       Br394   1.917       .  S
C388        H393   1.084       .  S
C388        C389   1.393       .  A
C389        C390   1.397       .  A
C390       Br391   1.923       .  S
C395        H402   1.083       .  S
C395        C400   1.404       .  A
C395       C1484   1.399       .  A
C396        C397   1.407       .  A
C396       C1483   1.399       .  A
C397        C398   1.392       .  A
C397       Br404   1.923       .  S
C398        H403   1.083       .  S
C398        C399   1.420       .  A
C399       C1093   1.577       .  S
C399       C1488   1.438       .  A
C400       C1487   1.438       .  A
C400       Br401   1.929       .  S
C405        H412   1.083       .  S
C405        C406   1.423       .  A
C405        C410   1.399       .  A
C406        C407   1.442       .  A
C407        C408   1.393       .  A
C407       Br414   1.930   1_455  S
C408        H413   1.085       .  S
C408        C409   1.388       .  A
C409        C410   1.396       .  A
C410       Br411   1.917       .  S
C415        H422   1.083       .  S
C415        C416   1.397       .  A
C415        C420   1.395       .  A
C416        C417   1.401       .  A
C417        C418   1.397       .  A
C417       Br424   1.918       .  S
C418        H423   1.076       .  S
C418        C419   1.419       .  A
C419       C1093   1.564       .  S
C419        C420   1.431       .  A
C420       Br421   1.918       .  S
C425        H432   1.082       .  S
C425        C426   1.422       .  A
C425        C430   1.399       .  A
C426        C548   1.564       .  S
C426        C427   1.444       .  A
C427        C428   1.394       .  A
C427       Br434   1.932       .  S
C428        H433   1.085       .  S
C428        C429   1.387       .  A
C429        C430   1.397       .  A
C430       Br431   1.916       .  S
C435        H442   1.080       .  S
C435        C436   1.414       .  A
C435        C440   1.391       .  A
C436        C548   1.554   1_545  S
C436        C981   1.430   1_545  A
C437        C438   1.401       .  A
C437        C980   1.430       .  A
C437       Br444   1.926       .  S
C438        H443   1.084       .  S
C438        C983   1.398       .  A
C439        C440   1.408       .  A
C439        C982   1.398   1_545  A
C440       Br441   1.923       .  S
C445        H452   1.080       .  S
C445        C446   1.416       .  A
C445        C450   1.390       .  A
C446        C548   1.576   1_545  S
C446        C447   1.433       .  A
C447        C448   1.406       .  A
C447       Br454   1.926       .  S
C448        H453   1.082       .  S
C448        C449   1.400       .  A
C449        C450   1.407       .  A
C450       Br451   1.924       .  S
C455        H462   1.079       .  S
C455        C456   1.423       .  A
C455        C460   1.391       .  A
C456        C457   1.431       .  A
C457        C458   1.402       .  A
C457       Br464   1.910       .  S
C458        H463   1.084       .  S
C458        C459   1.393       .  A
C459        C460   1.397       .  A
C460       Br461   1.922       .  S
C465        H472   1.082       .  S
C465        C466   1.410       .  A
C465        C470   1.408       .  A
C466        C467   1.419       .  A
C467        C468   1.393       .  A
C467       Br474   1.919       .  S
C468        H473   1.082       .  S
C468        C469   1.395       .  A
C469        C470   1.411       .  A
C470       Br471   1.917       .  S
C475        H482   1.082       .  S
C475        C476   1.410       .  A
C475        C480   1.393       .  A
C476        C477   1.418       .  A
C477        C478   1.409       .  A
C477       Br484   1.918       .  S
C478        H483   1.083       .  S
C478        C479   1.405       .  A
C479        C480   1.399       .  A
C480       Br481   1.913       .  S
C485        H492   1.082       .  S
C485        C486   1.405       .  A
C485        C490   1.398       .  A
C486        C487   1.417       .  A
C487        C488   1.402       .  A
C487       Br494   1.921       .  S
C488        H493   1.083       .  S
C488        C489   1.405       .  A
C489        C490   1.409       .  A
C490       Br491   1.918       .  S
C495        H502   1.083       .  S
C495        C496   1.403       .  A
C495        C500   1.403       .  A
C496        C497   1.407       .  A
C497        C498   1.397       .  A
C497       Br504   1.917       .  S
C498        H503   1.081       .  S
C498        C499   1.407       .  A
C499        C500   1.419       .  A
C500       Br501   1.920       .  S
C505        H512   1.084       .  S
C505        C510   1.402       .  A
C505       C1050   1.392       .  A
C506        C507   1.392       .  A
C506       C1049   1.392       .  A
C507        C508   1.389       .  A
C507       Br514   1.923       .  S
C508        H513   1.075       .  S
C508        C509   1.425   1_545  A
C509        C545   1.572       .  S
C509       C1054   1.434   1_565  A
C510       C1053   1.434       .  A
C510       Br511   1.916       .  S
C515        H522   1.077       .  S
C515        C516   1.422   1_545  A
C515        C520   1.403       .  A
C516        C545   1.583       .  S
C516       C1061   1.433       .  A
C517        C518   1.391       .  A
C517       C1060   1.433       .  A
C517       Br524   1.919       .  S
C518        H523   1.083       .  S
C518       C1063   1.394       .  A
C519        C520   1.404   1_565  A
C519       C1062   1.394       .  A
C520       Br521   1.919       .  S
C525        H532   1.083       .  S
C525        C526   1.422       .  A
C525        C530   1.399       .  A
C526        C545   1.575   1_545  S
C526        C527   1.446       .  A
C527        C528   1.393       .  A
C527       Br534   1.934   1_545  S
C528        H533   1.086       .  S
C528        C529   1.387       .  A
C529        C530   1.397       .  A
C530       Br531   1.916       .  S
C535        H542   1.084       .  S
C535        C536   1.399       .  A
C535        C540   1.400       .  A
C536        C537   1.405       .  A
C537        C538   1.391       .  A
C537       Br544   1.921       .  S
C538        H543   1.083       .  S
C538        C539   1.421       .  A
C539        C540   1.434       .  A
C540       Br541   1.927       .  S
C545       C1083   1.557       .  S
C546       C1020   1.506       .  S
C546       C1040   1.498   1_554  S
C546       C1635   1.375       .  D
C547       C1010   1.506       .  S
C547       C1033   1.499   1_554  S
C547       C1634   1.375   1_455  D
C548       C1000   1.573       .  S
C549       C2018   1.585       .  S
C549       C2031   1.577       .  S
C549        C950   1.561       .  S
C549       C2051   1.564   1_455  S
C550        C900   1.499       .  S
C550        C923   1.498   1_554  S
C551        C890   1.493       .  S
C551        C910   1.500   1_554  S
C552        N570   1.353       .  A
C552        C589   1.466       .  S
C552        C920   1.488       .  S
N553        N570   1.323       .  A
N553        N575   1.320       .  A
N553       Co590   2.088       .  S
C554        N579   1.339       .  A
C554        C592   1.457       .  S
C554        H599   1.081       .  S
H555        C596   1.081       .  S
C556        N580   1.342       .  A
C556        C560   1.466       .  S
C556        H585   1.080       .  S
Co557       N575   2.090       .  S
Co557       N565   2.087       .  S
Co557       N597   2.081       .  S
Co557       N573   2.077       .  S
Co557      Cl601   2.453       .  S
N558        C596   1.341       .  A
N558        N565   1.320       .  A
N558       Co559   2.087       .  S
Co559       N562   2.092       .  S
Co559       N579   2.077       .  S
Co559       N566   2.068       .  S
Co559      Cl601   2.444       .  S
C560        N598   1.353       .  A
C560        C913   1.489       .  S
N561        N568   1.320       .  A
N561        N591   1.325       .  A
N561       Co594   2.096       .  S
N562        N580   1.321       .  A
N562        N598   1.325       .  A
N563        C592   1.350       .  A
N563        N573   1.322       .  A
H564        C589   1.079       .  S
N565        N586   1.324       .  A
N566        N584   1.317       .  A
N566        N571   1.320       .  A
C567        N571   1.344       .  A
C567        C595   1.466       .  S
C567        C993   1.479       .  S
N568        C583   1.340       .  A
N568       Co590   2.082       .  S
C569        N597   1.342       .  A
C569        C572   1.459       .  S
C569        H603   1.081       .  S
C572        N593   1.344       .  A
C572       C1003   1.462       .  S
N573        N579   1.317       .  A
N574        C600   1.335       .  A
N574        N576   1.318       .  A
N574       Co590   2.069       .  S
N575        C589   1.342       .  A
N576        N604   1.326       .  A
N576       Co594   2.087       .  S
H577        C600   1.081       .  S
H578        C595   1.081       .  S
N580       Co594   2.094       .  S
N581        N593   1.321       .  A
N581        N597   1.317       .  A
N581       Co590   2.067       .  S
C582        N586   1.350       .  A
C582        C596   1.465       .  S
C582       C1030   1.487       .  S
C583        C602   1.465       .  S
C583        H587   1.081       .  S
N584        C595   1.346       .  A
N584       Co594   2.091       .  S
C588        N604   1.353       .  A
C588        C600   1.454       .  S
C588        C960   1.473       .  S
Co590      Cl601   2.444       .  S
N591        C602   1.352       .  A
C592        C953   1.460       .  S
Co594      Cl601   2.456       .  S
C602       C1043   1.492       .  S
C605        N623   1.347       .  A
C605        C642   1.459       .  S
C605        C873   1.462       .  S
N606        N623   1.322       .  A
N606        N628   1.318       .  A
N606       Co643   2.075       .  S
C607        N632   1.338       .  A
C607        C645   1.467       .  S
C607        H652   1.076       .  S
H608        C649   1.081       .  S
C609        N633   1.341       .  A
C609        C613   1.463       .  S
C609        H638   1.081       .  S
Co610       N628   2.080       .  S
Co610       N618   2.079       .  S
Co610       N650   2.094       .  S
Co610       N626   2.096       .  S
Co610      Cl654   2.460       .  S
N611        C649   1.340       .  A
N611        N618   1.318       .  A
N611       Co612   2.082       .  S
Co612       N615   2.081       .  S
Co612       N632   2.087       .  S
Co612       N619   2.104       .  S
Co612      Cl654   2.444       .  S
C613        N651   1.349       .  A
C613        C883   1.478       .  S
N614        N621   1.317       .  A
N614        N644   1.323       .  A
N614       Co647   2.078       .  S
N615        N633   1.318       .  A
N615        N651   1.324       .  A
N616        C645   1.355       .  A
N616        N626   1.326       .  A
H617        C642   1.081       .  S
N618        N639   1.323       .  A
N619        N637   1.321       .  A
N619        N624   1.326       .  A
C620        N624   1.354       .  A
C620        C648   1.456       .  S
C620       C1023   1.479       .  S
N621        C636   1.337       .  A
N621       Co643   2.068       .  S
C622        N650   1.346       .  A
C622        C625   1.464       .  S
C622        H656   1.081       .  S
C625        N646   1.349       .  A
C625       C1013   1.479       .  S
N626        N632   1.320       .  A
N627        C653   1.339       .  A
N627        N629   1.320       .  A
N627       Co643   2.083       .  S
N628        C642   1.341       .  A
N629        N657   1.325       .  A
N629       Co647   2.090       .  S
H630        C653   1.080       .  S
H631        C648   1.081       .  S
N633       Co647   2.083       .  S
N634        N646   1.323       .  A
N634        N650   1.321       .  A
N634       Co643   2.087       .  S
C635        N639   1.349       .  A
C635        C649   1.460       .  S
C635       C1073   1.463       .  S
C636        C655   1.457       .  S
C636        H640   1.080       .  S
N637        C648   1.342       .  A
N637       Co647   2.082       .  S
C641        N657   1.352       .  A
C641        C653   1.463       .  S
C641        C903   1.484       .  S
Co643      Cl654   2.440       .  S
N644        C655   1.350       .  A
C645        C893   1.495       .  S
Co647      Cl654   2.459       .  S
C655       C1080   1.473       .  S
C658        C695   1.450       .  S
C658        C983   1.471       .  S
N659        N676   1.326       .  A
N659       Co696   2.093       .  S
C660        N685   1.341       .  A
C660        C698   1.464       .  S
C660        H705   1.080       .  S
H661        C702   1.081       .  S
C662        N686   1.339       .  A
C662        H691   1.081       .  S
Co663       N681   2.059       .  S
Co663       N671   2.074       .  S
Co663       N703   2.088       .  S
Co663       N679   2.083       .  S
Co663     Cl1795   2.442       .  S
N664        C702   1.342       .  A
N664       N1759   1.317       .  A
N664       Co665   2.081       .  S
Co665       N668   2.082       .  S
Co665       N685   2.090       .  S
Co665       N672   2.083       .  S
Co665      Cl707   2.456       .  S
C666        N704   1.351       .  A
C666        C973   1.462       .  S
N667       N1762   1.318       .  A
N667        N697   1.321       .  A
N667       Co700   2.077       .  S
N668        N704   1.324       .  A
N669       C1786   1.351   1_455  A
N669        N679   1.324       .  A
H670        C695   1.080       .  S
N671       N1752   1.317   1_455  A
N671        N692   1.322       .  A
N672        N677   1.326       .  A
C673        N677   1.349       .  A
C673        C843   1.481       .  S
N674        C689   1.343       .  A
N674       N1755   1.318   1_455  A
N674       Co696   2.086       .  S
C675        N703   1.340       .  A
C675        C678   1.464       .  S
C675        H709   1.081       .  S
C678        C833   1.481       .  S
N679       N1773   1.320   1_455  A
N680        C706   1.341       .  A
N680       N1770   1.319   1_455  A
N680       Co696   2.092       .  S
N681        C695   1.333       .  A
N682       N1768   1.319       .  A
N682        N710   1.325       .  A
N682       Co700   2.096       .  S
H683        C706   1.076       .  S
H684        C701   1.081       .  S
N685       N1767   1.320       .  A
N686       Co700   2.078       .  S
N687        N699   1.325       .  A
N687       Co696   2.083       .  S
C688       N1780   1.346       .  A
C688        C702   1.459       .  S
C688        C933   1.465       .  S
C689       C1796   1.465       .  S
C689        H693   1.081       .  S
N690        C701   1.341       .  A
N690       Co700   2.096       .  S
N692       C1776   1.346   1_455  A
C694        N710   1.357       .  A
C694       C1794   1.469       .  S
C694        C863   1.499       .  S
Co696     Cl1251   2.456   1_565  S
N697        C708   1.346       .  A
C698       N1757   1.351       .  A
C698        C850   1.484       .  S
C706       C1782   1.469       .  S
Cl707     Co1751   2.442       .  S
Cl707     Co1240   2.456       .  S
C708       C1777   1.465       .  S
C708        C940   1.482       .  S
C711       N1817   1.352       .  A
C711        C748   1.458       .  S
C711        C773   1.477       .  S
N712        N729   1.326       .  A
N712       N1822   1.317   1_455  A
N712       Co749   2.087       .  S
C713        N738   1.340       .  A
C713        C751   1.466       .  S
C713        H758   1.081       .  S
H714        C755   1.081       .  S
C715        N739   1.340       .  A
C715       C1807   1.460       .  S
C715        H744   1.081       .  S
Co716       N734   2.069       .  S
Co716       N724   2.077       .  S
Co716       N756   2.087       .  S
Co716       N732   2.083       .  S
N717        C755   1.339       .  A
N717       Co718   2.067       .  S
Co718       N721   2.074       .  S
Co718       N738   2.085       .  S
Co718       N725   2.082       .  S
Co718      Cl760   2.445       .  S
C719        N757   1.347       .  A
C719       C1803   1.460       .  S
C719        C783   1.460       .  S
N720        N750   1.327       .  A
N720       Co753   2.086       .  S
N721       N1827   1.317       .  A
N721        N757   1.322       .  A
N722        N732   1.323       .  A
H723        C748   1.081       .  S
N724        N745   1.323       .  A
N725       N1831   1.320       .  A
N725        N730   1.324       .  A
C726        N730   1.350       .  A
C726       C1842   1.467       .  S
C726        C790   1.485       .  S
N727        C742   1.335       .  A
N727       Co749   2.071       .  S
C728        N756   1.341       .  A
C728        C731   1.463       .  S
C728        H762   1.081       .  S
N729       C1799   1.352   1_455  A
C731       N1840   1.351       .  A
C731        C800   1.485       .  S
N733        C759   1.341       .  A
N733       Co749   2.094       .  S
N734        C748   1.336       .  A
N734       N1800   1.317       .  A
N735        N763   1.324       .  A
N735       Co753   2.091       .  S
H736        C759   1.080       .  S
H737        C754   1.080       .  S
N739       N1809   1.317   1_455  A
N739       Co753   2.079       .  S
N740        N752   1.325       .  A
N740       N1844   1.320   1_455  A
N740       Co749   2.089       .  S
C741        C755   1.453       .  S
C741       C1050   1.458       .  S
C742        H746   1.081       .  S
N743        C754   1.344       .  A
N743       N1813   1.320   1_455  A
N743       Co753   2.098       .  S
C747        N763   1.351       .  A
C747        C810   1.494       .  S
Co749     Cl1304   2.446   1_565  S
N750        C761   1.352       .  A
C751        C823   1.489       .  S
N752       C1819   1.351   1_455  A
Co753     Cl1848   2.454       .  S
C754       C1814   1.467       .  S
N756       N1828   1.320       .  A
Cl760     Co1293   2.446       .  S
Cl760     Co1841   2.454       .  S
C761       C1063   1.478       .  S
C764        C803   1.495       .  S
C764        C860   1.498       .  S
C764        C765   1.371       .  D
C765        C793   1.502       .  S
C765        C853   1.497       .  S
C766        C813   1.499       .  S
C766        C830   1.497       .  S
C766        C767   1.372       .  D
C767        C820   1.491       .  S
C767        C840   1.512       .  S
C768        C770   1.555       .  S
C768        C780   1.571       .  S
C768        C870   1.581   1_655  S
C768       C1968   1.575       .  S
C769        H776   1.077       .  S
C769        C770   1.416   1_455  A
C769        C774   1.399       .  A
C770       C1859   1.433       .  A
C771       C1858   1.433       .  A
C771        C772   1.393       .  A
C771       Br778   1.926       .  S
C772        H777   1.082       .  S
C772        C773   1.397       .  A
C773       C1862   1.406       .  A
C774       C1861   1.406   1_455  A
C774       Br775   1.919       .  S
C779        H786   1.083       .  S
C779       C1868   1.422       .  A
C779        C784   1.398       .  A
C780       C1867   1.422   1_655  A
C780        C781   1.446   1_655  A
C781        C782   1.393       .  A
C781       Br788   1.933       .  S
C782        H787   1.086       .  S
C782       C1871   1.386       .  A
C783       C1870   1.386       .  A
C783        C784   1.395       .  A
C784       Br785   1.917       .  S
C789        H796   1.084       .  S
C789        C790   1.402       .  A
C789        C794   1.398       .  A
C790       C1879   1.413       .  A
C791       C1878   1.413       .  A
C791        C792   1.404       .  A
C791       Br798   1.917       .  S
C792        H797   1.082       .  S
C792        C793   1.407   1_455  A
C793       C1882   1.415       .  A
C794       C1881   1.415       .  A
C794       Br795   1.920       .  S
C799        H806   1.083       .  S
C799        C800   1.407       .  A
C799        C804   1.402       .  A
C800       C1889   1.411       .  A
C801       C1888   1.411   1_455  A
C801        C802   1.397       .  A
C801       Br808   1.921       .  S
C802        H807   1.082       .  S
C802        C803   1.405   1_455  A
C803       C1892   1.411       .  A
C804       C1891   1.411       .  A
C804       Br805   1.916       .  S
C809        H816   1.081       .  S
C809        C814   1.399       .  A
C810        C811   1.420       .  A
C811        C812   1.402       .  A
C811       Br818   1.921       .  S
C812        H817   1.083       .  S
C813        C814   1.406   1_545  A
C814       Br815   1.915       .  S
C819        H826   1.083       .  S
C819        C820   1.401   1_565  A
C819        C824   1.399       .  A
C821        C822   1.397       .  A
C821       Br828   1.916       .  S
C822        H827   1.081       .  S
C822        C823   1.408       .  A
C824       Br825   1.922       .  S
C829        H836   1.080       .  S
C829        C834   1.392       .  A
C830        C831   1.413   1_545  A
C831        C832   1.405       .  A
C831       Br838   1.917       .  S
C832        H837   1.083       .  S
C833        C834   1.407       .  A
C834       Br835   1.920       .  S
C839        H846   1.078       .  S
C839        C844   1.392       .  A
C840        C841   1.419       .  A
C841        C842   1.409       .  A
C841       Br848   1.916       .  S
C842        H847   1.083       .  S
C843        C844   1.402       .  A
C844       Br845   1.923       .  S
C849        H856   1.082       .  S
C849       C1938   1.402   1_455  A
C849        C854   1.397       .  A
C850       C1937   1.402       .  A
C850        C851   1.414       .  A
C851        C852   1.402       .  A
C851       Br858   1.918       .  S
C852        H857   1.082       .  S
C852       C1941   1.404       .  A
C853       C1940   1.404       .  A
C853        C854   1.411   1_655  A
C854       Br855   1.918       .  S
C859        H866   1.084       .  S
C859        C860   1.401   1_455  A
C859        C864   1.405       .  A
C860       C1949   1.408       .  A
C861       C1948   1.408       .  A
C861        C862   1.399       .  A
C861       Br868   1.913       .  S
C862        H867   1.083       .  S
C862        C863   1.407       .  A
C863       C1952   1.423       .  A
C864       C1951   1.423       .  A
C864       Br865   1.916       .  S
C869        H876   1.077       .  S
C869        C870   1.426       .  A
C869        C874   1.390       .  A
C870        C871   1.434       .  A
C871        C872   1.403       .  A
C871       Br878   1.917       .  S
C872        H877   1.084       .  S
C872        C873   1.393       .  A
C873        C874   1.394       .  A
C874       Br875   1.923       .  S
C879        H886   1.077       .  S
C879        C880   1.419       .  A
C879        C884   1.399       .  A
C880       C1856   1.575       .  S
C880        C881   1.434       .  A
C881        C882   1.395       .  A
C881       Br888   1.925       .  S
C882        H887   1.083       .  S
C882        C883   1.395       .  A
C883        C884   1.406       .  A
C884       Br885   1.919       .  S
C889        H896   1.084       .  S
C889        C890   1.399       .  A
C889        C894   1.393       .  A
C890        C891   1.411       .  A
C891        C892   1.405       .  A
C891       Br898   1.918       .  S
C892        H897   1.083       .  S
C892        C893   1.411       .  A
C893        C894   1.416       .  A
C894       Br895   1.911       .  S
C899        H906   1.084       .  S
C899        C900   1.405       .  A
C899        C904   1.395       .  A
C900        C901   1.416       .  A
C901        C902   1.402       .  A
C901       Br908   1.916       .  S
C902        H907   1.083       .  S
C902        C903   1.405       .  A
C903        C904   1.410       .  A
C904       Br905   1.914       .  S
C909        H916   1.083       .  S
C909        C910   1.404       .  A
C909        C914   1.404       .  A
C910        C911   1.411       .  A
C911        C912   1.398       .  A
C911       Br918   1.913       .  S
C912        H917   1.083       .  S
C912        C913   1.403       .  A
C913        C914   1.417       .  A
C914       Br915   1.917       .  S
C919        H926   1.083       .  S
C919        C920   1.403       .  A
C919        C924   1.395       .  A
C920        C921   1.418       .  A
C921        C922   1.405       .  A
C921       Br928   1.917       .  S
C922        H927   1.083       .  S
C922        C923   1.404       .  A
C923        C924   1.409       .  A
C924       Br925   1.913       .  S
C929        H936   1.078       .  S
C929        C930   1.424       .  A
C929        C934   1.392       .  A
C930       C1637   1.585       .  S
C930        C931   1.434       .  A
C931        C932   1.402       .  A
C931       Br938   1.917       .  S
C932        H937   1.084       .  S
C932        C933   1.393       .  A
C933        C934   1.397       .  A
C934       Br935   1.923       .  S
C939        H946   1.083       .  S
C939       C2028   1.399       .  A
C939        C944   1.404       .  A
C940       C2027   1.399       .  A
C940        C941   1.407       .  A
C941        C942   1.392       .  A
C941       Br948   1.923       .  S
C942        H947   1.083       .  S
C942        C943   1.420       .  A
C943       C1637   1.577       .  S
C943       C2032   1.438       .  A
C944       C2031   1.438       .  A
C944       Br945   1.929       .  S
C949        H956   1.083       .  S
C949        C950   1.423       .  A
C949        C954   1.399       .  A
C950        C951   1.442       .  A
C951        C952   1.393       .  A
C951       Br958   1.930   1_455  S
C952        H957   1.085       .  S
C952        C953   1.388       .  A
C953        C954   1.396       .  A
C954       Br955   1.917       .  S
C959        H966   1.083       .  S
C959        C960   1.397       .  A
C959        C964   1.395       .  A
C960        C961   1.401       .  A
C961        C962   1.397       .  A
C961       Br968   1.918       .  S
C962        H967   1.076       .  S
C962        C963   1.419       .  A
C963       C1637   1.564       .  S
C963        C964   1.431       .  A
C964       Br965   1.918       .  S
C969        H976   1.082       .  S
C969        C970   1.422       .  A
C969        C974   1.399       .  A
C970        C971   1.444       .  A
C971        C972   1.394       .  A
C971       Br978   1.932       .  S
C972        H977   1.085       .  S
C972        C973   1.387       .  A
C973        C974   1.397       .  A
C974       Br975   1.916       .  S
C979        H986   1.080       .  S
C979        C980   1.414       .  A
C979        C984   1.391       .  A
C981        C982   1.401       .  A
C981       Br988   1.926       .  S
C982        H987   1.084       .  S
C983        C984   1.408       .  A
C984       Br985   1.923       .  S
C989        H996   1.080       .  S
C989        C990   1.416       .  A
C989        C994   1.390       .  A
C990        C991   1.433       .  A
C991        C992   1.406       .  A
C991       Br998   1.926       .  S
C992        H997   1.082       .  S
C992        C993   1.400       .  A
C993        C994   1.407       .  A
C994       Br995   1.924       .  S
C999       H1006   1.079       .  S
C999       C1000   1.423       .  A
C999       C1004   1.391       .  A
C1000      C1001   1.431       .  A
C1001      C1002   1.402       .  A
C1001     Br1008   1.910       .  S
C1002      H1007   1.084       .  S
C1002      C1003   1.393       .  A
C1003      C1004   1.397       .  A
C1004     Br1005   1.922       .  S
C1009      H1016   1.082       .  S
C1009      C1010   1.410       .  A
C1009      C1014   1.408       .  A
C1010      C1011   1.419       .  A
C1011      C1012   1.393       .  A
C1011     Br1018   1.919       .  S
C1012      H1017   1.082       .  S
C1012      C1013   1.395       .  A
C1013      C1014   1.411       .  A
C1014     Br1015   1.917       .  S
C1019      H1026   1.082       .  S
C1019      C1020   1.410       .  A
C1019      C1024   1.393       .  A
C1020      C1021   1.418       .  A
C1021      C1022   1.409       .  A
C1021     Br1028   1.918       .  S
C1022      H1027   1.083       .  S
C1022      C1023   1.405       .  A
C1023      C1024   1.399       .  A
C1024     Br1025   1.913       .  S
C1029      H1036   1.082       .  S
C1029      C1030   1.405       .  A
C1029      C1034   1.398       .  A
C1030      C1031   1.417       .  A
C1031      C1032   1.402       .  A
C1031     Br1038   1.921       .  S
C1032      H1037   1.083       .  S
C1032      C1033   1.405       .  A
C1033      C1034   1.409       .  A
C1034     Br1035   1.918       .  S
C1039      H1046   1.083       .  S
C1039      C1040   1.403       .  A
C1039      C1044   1.403       .  A
C1040      C1041   1.407       .  A
C1041      C1042   1.397       .  A
C1041     Br1048   1.917       .  S
C1042      H1047   1.081       .  S
C1042      C1043   1.407       .  A
C1043      C1044   1.419       .  A
C1044     Br1045   1.920       .  S
C1049      H1056   1.084       .  S
C1049      C1054   1.402       .  A
C1050      C1051   1.392       .  A
C1051      C1052   1.389       .  A
C1051     Br1058   1.923       .  S
C1052      H1057   1.075       .  S
C1052      C1053   1.425       .  A
C1054     Br1055   1.916       .  S
C1059      H1066   1.077       .  S
C1059      C1060   1.422       .  A
C1059      C1064   1.403       .  A
C1061      C1062   1.391       .  A
C1061     Br1068   1.919       .  S
C1062      H1067   1.083       .  S
C1063      C1064   1.404       .  A
C1064     Br1065   1.919       .  S
C1069      H1076   1.083       .  S
C1069      C1070   1.422       .  A
C1069      C1074   1.399       .  A
C1070      C1071   1.446       .  A
C1071      C1072   1.393       .  A
C1071     Br1078   1.934       .  S
C1072      H1077   1.086       .  S
C1072      C1073   1.387       .  A
C1073      C1074   1.397       .  A
C1074     Br1075   1.916       .  S
C1079      H1086   1.084       .  S
C1079      C1080   1.399       .  A
C1079      C1084   1.400       .  A
C1080      C1081   1.405       .  A
C1081      C1082   1.391       .  A
C1081     Br1088   1.921       .  S
C1082      H1087   1.083       .  S
C1082      C1083   1.421       .  A
C1083      C1084   1.434       .  A
C1084     Br1085   1.927       .  S
C1089      C2141   1.572       .  S
C1089      C2148   1.583       .  S
C1089      C2158   1.575       .  S
C1089      C1627   1.557       .  S
C1090      C1564   1.506       .  S
C1090      C1584   1.498   1_554  S
C1091      C1554   1.506       .  S
C1091      C1577   1.499   1_554  S
C1092      C2058   1.564       .  S
C1092      C2068   1.554       .  S
C1092      C2078   1.576       .  S
C1092      C1544   1.573       .  S
C1093      C1494   1.561       .  S
C1094      C1444   1.499       .  S
C1094      C1467   1.498   1_554  S
C1094      C1639   1.371       .  D
C1095      C1434   1.493       .  S
C1095      C1454   1.500   1_554  S
C1095      C1638   1.371   1_545  D
C1096      N1114   1.353       .  A
C1096      C1133   1.466       .  S
C1096      C1464   1.488       .  S
N1097      N1114   1.323       .  A
N1097      N1119   1.320       .  A
N1097     Co1134   2.088       .  S
C1098      N1123   1.339       .  A
C1098      C1136   1.457       .  S
C1098      H1143   1.081       .  S
H1099      C1140   1.081       .  S
C1100      N1124   1.342       .  A
C1100      C1104   1.466       .  S
C1100      H1129   1.080       .  S
Co1101     N1119   2.090       .  S
Co1101     N1109   2.087       .  S
Co1101     N1141   2.081       .  S
Co1101     N1117   2.077       .  S
Co1101    Cl1145   2.453       .  S
N1102      C1140   1.341       .  A
N1102      N1109   1.320       .  A
N1102     Co1103   2.087       .  S
Co1103     N1106   2.092       .  S
Co1103     N1123   2.077       .  S
Co1103     N1110   2.068       .  S
Co1103    Cl1145   2.444       .  S
C1104      N1142   1.353       .  A
C1104      C1457   1.489       .  S
N1105      N1112   1.320       .  A
N1105      N1135   1.325       .  A
N1105     Co1138   2.096       .  S
N1106      N1124   1.321       .  A
N1106      N1142   1.325       .  A
N1107      C1136   1.350       .  A
N1107      N1117   1.322       .  A
H1108      C1133   1.079       .  S
N1109      N1130   1.324       .  A
N1110      N1128   1.317       .  A
N1110      N1115   1.320       .  A
C1111      N1115   1.344       .  A
C1111      C1139   1.466       .  S
C1111      C1537   1.479       .  S
N1112      C1127   1.340       .  A
N1112     Co1134   2.082       .  S
C1113      N1141   1.342       .  A
C1113      C1116   1.459       .  S
C1113      H1147   1.081       .  S
C1116      N1137   1.344       .  A
C1116      C1547   1.462       .  S
N1117      N1123   1.317       .  A
N1118      C1144   1.335       .  A
N1118      N1120   1.318       .  A
N1118     Co1134   2.069       .  S
N1119      C1133   1.342       .  A
N1120      N1148   1.326       .  A
N1120     Co1138   2.087       .  S
H1121      C1144   1.081       .  S
H1122      C1139   1.081       .  S
N1124     Co1138   2.094       .  S
N1125      N1137   1.321       .  A
N1125      N1141   1.317       .  A
N1125     Co1134   2.067       .  S
C1126      N1130   1.350       .  A
C1126      C1140   1.465       .  S
C1126      C1574   1.487       .  S
C1127      C1146   1.465       .  S
C1127      H1131   1.081       .  S
N1128      C1139   1.346       .  A
N1128     Co1138   2.091       .  S
C1132      N1148   1.353       .  A
C1132      C1144   1.454       .  S
C1132      C1504   1.473       .  S
Co1134    Cl1145   2.444       .  S
N1135      C1146   1.352       .  A
C1136      C1497   1.460       .  S
Co1138    Cl1145   2.456       .  S
C1146      C1587   1.492       .  S
C1149      N1167   1.347       .  A
C1149      C1186   1.459       .  S
C1149      C1417   1.462       .  S
N1150      N1167   1.322       .  A
N1150      N1172   1.318       .  A
N1150     Co1187   2.075       .  S
C1151      N1176   1.338       .  A
C1151      C1189   1.467       .  S
C1151      H1196   1.076       .  S
H1152      C1193   1.081       .  S
C1153      N1177   1.341       .  A
C1153      C1157   1.463       .  S
C1153      H1182   1.081       .  S
Co1154     N1172   2.080       .  S
Co1154     N1162   2.079       .  S
Co1154     N1194   2.094       .  S
Co1154     N1170   2.096       .  S
Co1154    Cl1198   2.460       .  S
N1155      C1193   1.340       .  A
N1155      N1162   1.318       .  A
N1155     Co1156   2.082       .  S
Co1156     N1159   2.081       .  S
Co1156     N1176   2.087       .  S
Co1156     N1163   2.104       .  S
Co1156    Cl1198   2.444       .  S
C1157      N1195   1.349       .  A
C1157      C1427   1.478       .  S
N1158      N1165   1.317       .  A
N1158      N1188   1.323       .  A
N1158     Co1191   2.078       .  S
N1159      N1177   1.318       .  A
N1159      N1195   1.324       .  A
N1160      C1189   1.355       .  A
N1160      N1170   1.326       .  A
H1161      C1186   1.081       .  S
N1162      N1183   1.323       .  A
N1163      N1181   1.321       .  A
N1163      N1168   1.326       .  A
C1164      N1168   1.354       .  A
C1164      C1192   1.456       .  S
C1164      C1567   1.479       .  S
N1165      C1180   1.337       .  A
N1165     Co1187   2.068       .  S
C1166      N1194   1.346       .  A
C1166      C1169   1.464       .  S
C1166      H1200   1.081       .  S
C1169      N1190   1.349       .  A
C1169      C1557   1.479       .  S
N1170      N1176   1.320       .  A
N1171      C1197   1.339       .  A
N1171      N1173   1.320       .  A
N1171     Co1187   2.083       .  S
N1172      C1186   1.341       .  A
N1173      N1201   1.325       .  A
N1173     Co1191   2.090       .  S
H1174      C1197   1.080       .  S
H1175      C1192   1.081       .  S
N1177     Co1191   2.083       .  S
N1178      N1190   1.323       .  A
N1178      N1194   1.321       .  A
N1178     Co1187   2.087       .  S
C1179      N1183   1.349       .  A
C1179      C1193   1.460       .  S
C1179      C1617   1.463       .  S
C1180      C1199   1.457       .  S
C1180      H1184   1.080       .  S
N1181      C1192   1.342       .  A
N1181     Co1191   2.082       .  S
C1185      N1201   1.352       .  A
C1185      C1197   1.463       .  S
C1185      C1447   1.484       .  S
Co1187    Cl1198   2.440       .  S
N1188      C1199   1.350       .  A
C1189      C1437   1.495       .  S
Co1191    Cl1198   2.459       .  S
C1199      C1624   1.473       .  S
C1202      N1764   1.354   1_545  A
C1202      C1239   1.450       .  S
C1202      C1527   1.471       .  S
N1203      N1220   1.326       .  A
N1203      N1769   1.318       .  A
N1203     Co1240   2.093       .  S
C1204      N1229   1.341       .  A
C1204      C1242   1.464       .  S
C1204      H1249   1.080       .  S
H1205      C1246   1.081       .  S
C1206      N1230   1.339       .  A
C1206      C1754   1.456       .  S
C1206      H1235   1.081       .  S
Co1207     N1225   2.059       .  S
Co1207     N1215   2.074       .  S
Co1207     N1247   2.088       .  S
Co1207     N1223   2.083       .  S
N1208      C1246   1.342       .  A
N1208     Co1209   2.081       .  S
Co1209     N1212   2.082       .  S
Co1209     N1229   2.090       .  S
Co1209     N1216   2.083       .  S
Co1209    Cl1251   2.456   1_655  S
C1210      N1248   1.351   1_565  A
C1210      C1750   1.456       .  S
C1210      C1517   1.462       .  S
N1211      N1241   1.321       .  A
N1211     Co1244   2.077       .  S
N1212      N1774   1.318   1_545  A
N1212      N1248   1.324       .  A
N1213      N1223   1.324       .  A
H1214      C1239   1.080       .  S
N1215      N1236   1.322       .  A
N1216      N1778   1.321   1_545  A
N1216      N1221   1.326       .  A
C1217      N1221   1.349       .  A
C1217      C1789   1.464   1_545  S
C1217      C1387   1.481       .  S
N1218      C1233   1.343       .  A
N1218     Co1240   2.086       .  S
C1219      N1247   1.340       .  A
C1219      C1222   1.464       .  S
C1219      H1253   1.081       .  S
N1220      C1746   1.354       .  A
C1222      N1787   1.350   1_545  A
C1222      C1377   1.481       .  S
N1224      C1250   1.341       .  A
N1224     Co1240   2.092       .  S
N1225      C1239   1.333       .  A
N1225      N1747   1.318   1_545  A
N1226      N1254   1.325       .  A
N1226     Co1244   2.096       .  S
H1227      C1250   1.076       .  S
H1228      C1245   1.081       .  S
N1230      N1756   1.318       .  A
N1230     Co1244   2.078       .  S
N1231      N1243   1.325       .  A
N1231      N1791   1.320       .  A
N1231     Co1240   2.083       .  S
C1232      C1246   1.459       .  S
C1232      C1477   1.465       .  S
C1233      H1237   1.081       .  S
N1234      C1245   1.341       .  A
N1234      N1760   1.321       .  A
N1234     Co1244   2.096       .  S
C1238      N1254   1.357   1_455  A
C1238      C1407   1.499       .  S
N1241      C1252   1.346   1_655  A
C1242      C1394   1.484       .  S
N1243      C1766   1.350       .  A
Co1244    Cl1795   2.446   1_655  S
C1245      C1761   1.464       .  S
N1247      N1775   1.320   1_545  A
Cl1251    Co1788   2.446   1_445  S
C1252      C1484   1.482       .  S
C1255      C1292   1.458       .  S
C1255      C1317   1.477       .  S
N1256      N1273   1.326       .  A
N1256     Co1293   2.087       .  S
C1257      N1282   1.340       .  A
C1257      C1295   1.466       .  S
C1257      H1302   1.081       .  S
H1258      C1299   1.081       .  S
C1259      N1283   1.340       .  A
C1259      H1288   1.081       .  S
Co1260     N1278   2.069       .  S
Co1260     N1268   2.077       .  S
Co1260     N1300   2.087       .  S
Co1260     N1276   2.083       .  S
Co1260    Cl1848   2.450   1_655  S
N1261      C1299   1.339       .  A
N1261      N1812   1.317   1_545  A
N1261     Co1262   2.067       .  S
Co1262     N1265   2.074       .  S
Co1262     N1282   2.085       .  S
Co1262     N1269   2.082       .  S
Co1262    Cl1304   2.445   1_655  S
C1263      N1301   1.347   1_455  A
C1263      C1327   1.460       .  S
N1264      N1815   1.317   1_545  A
N1264      N1294   1.327       .  A
N1264     Co1297   2.086       .  S
N1265      N1301   1.322       .  A
N1266      C1839   1.350       .  A
N1266      N1276   1.323       .  A
H1267      C1292   1.081       .  S
N1268      N1805   1.317       .  A
N1268      N1289   1.323       .  A
N1269      N1274   1.324       .  A
C1270      N1274   1.350   1_455  A
C1270      C1334   1.485       .  S
N1271      C1286   1.335       .  A
N1271      N1808   1.317       .  A
N1271     Co1293   2.071       .  S
C1272      N1300   1.341       .  A
C1272      C1275   1.463       .  S
C1272      H1306   1.081       .  S
C1275      C1344   1.485       .  S
N1276      N1826   1.319       .  A
N1277      C1303   1.341       .  A
N1277      N1823   1.321       .  A
N1277     Co1293   2.094       .  S
N1278      C1292   1.336       .  A
N1279      N1821   1.321   1_545  A
N1279      N1307   1.324       .  A
N1279     Co1297   2.091       .  S
H1280      C1303   1.080       .  S
H1281      C1298   1.080       .  S
N1282      N1820   1.319   1_545  A
N1283     Co1297   2.079       .  S
N1284      N1296   1.325       .  A
N1284     Co1293   2.089       .  S
C1285      N1833   1.348   1_545  A
C1285      C1299   1.453       .  S
C1285      C1594   1.458       .  S
C1286      C1849   1.458       .  S
C1286      H1290   1.081       .  S
N1287      C1298   1.344       .  A
N1287     Co1297   2.098       .  S
N1289      C1829   1.348       .  A
C1291      N1307   1.351       .  A
C1291      C1847   1.469   1_545  S
C1291      C1354   1.494       .  S
N1294      C1305   1.352   1_545  A
C1295      N1810   1.350   1_545  A
C1295      C1367   1.489       .  S
C1303      C1835   1.469       .  S
Cl1304    Co1804   2.450   1_445  S
C1305      C1830   1.458       .  S
C1305      C1607   1.478       .  S
C1308      C1347   1.495       .  S
C1308      C1404   1.498       .  S
C1308      C1309   1.371       .  D
C1309      C1337   1.502       .  S
C1309      C1397   1.497       .  S
C1310      C1357   1.499       .  S
C1310      C1374   1.497       .  S
C1310      C1311   1.372       .  D
C1311      C1364   1.491       .  S
C1311      C1384   1.512       .  S
C1312      C1314   1.555       .  S
C1312      C1324   1.571       .  S
C1312      C1414   1.581       .  S
C1313      H1320   1.077       .  S
C1313      C1314   1.416       .  A
C1313      C1318   1.399       .  A
C1315      C1316   1.393       .  A
C1315     Br1322   1.926       .  S
C1316      H1321   1.082       .  S
C1316      C1317   1.397       .  A
C1318     Br1319   1.919       .  S
C1323      H1330   1.083       .  S
C1323      C1328   1.398       .  A
C1324      C1325   1.446       .  A
C1325      C1326   1.393       .  A
C1325     Br1332   1.933       .  S
C1326      H1331   1.086       .  S
C1327      C1328   1.395       .  A
C1328     Br1329   1.917       .  S
C1333      H1340   1.084       .  S
C1333      C1334   1.402   1_655  A
C1333      C1338   1.398       .  A
C1335      C1336   1.404       .  A
C1335     Br1342   1.917       .  S
C1336      H1341   1.082       .  S
C1336      C1337   1.407       .  A
C1338     Br1339   1.920       .  S
C1343      H1350   1.083       .  S
C1343      C1344   1.407       .  A
C1343      C1348   1.402       .  A
C1345      C1346   1.397       .  A
C1345     Br1352   1.921       .  S
C1346      H1351   1.082       .  S
C1346      C1347   1.405       .  A
C1348     Br1349   1.916       .  S
C1353      H1360   1.081       .  S
C1353      C1898   1.408       .  A
C1353      C1358   1.399       .  A
C1354      C1897   1.408   1_545  A
C1354      C1355   1.420       .  A
C1355      C1356   1.402       .  A
C1355     Br1362   1.921       .  S
C1356      H1361   1.083       .  S
C1356      C1901   1.402       .  A
C1357      C1900   1.402       .  A
C1357      C1358   1.406       .  A
C1358     Br1359   1.915       .  S
C1363      H1370   1.083       .  S
C1363      C1364   1.401       .  A
C1363      C1368   1.399       .  A
C1364      C1909   1.403       .  A
C1365      C1908   1.403       .  A
C1365      C1366   1.397       .  A
C1365     Br1372   1.916       .  S
C1366      H1371   1.081       .  S
C1366      C1367   1.408       .  A
C1367      C1912   1.419   1_545  A
C1368      C1911   1.419       .  A
C1368     Br1369   1.922       .  S
C1373      H1380   1.080       .  S
C1373      C1918   1.408       .  A
C1373      C1378   1.392       .  A
C1374      C1917   1.408       .  A
C1374      C1375   1.413       .  A
C1375      C1376   1.405       .  A
C1375     Br1382   1.917       .  S
C1376      H1381   1.083       .  S
C1376      C1921   1.408       .  A
C1377      C1920   1.408   1_545  A
C1377      C1378   1.407       .  A
C1378     Br1379   1.920       .  S
C1383      H1390   1.078       .  S
C1383      C1928   1.413   1_565  A
C1383      C1388   1.392       .  A
C1384      C1927   1.413       .  A
C1384      C1385   1.419       .  A
C1385      C1386   1.409       .  A
C1385     Br1392   1.916       .  S
C1386      H1391   1.083       .  S
C1386      C1931   1.406       .  A
C1387      C1930   1.406       .  A
C1387      C1388   1.402   1_545  A
C1388     Br1389   1.923       .  S
C1393      H1400   1.082       .  S
C1393      C1398   1.397       .  A
C1394      C1395   1.414       .  A
C1395      C1396   1.402       .  A
C1395     Br1402   1.918       .  S
C1396      H1401   1.082       .  S
C1397      C1398   1.411       .  A
C1398     Br1399   1.918       .  S
C1403      H1410   1.084       .  S
C1403      C1404   1.401       .  A
C1403      C1408   1.405       .  A
C1405      C1406   1.399       .  A
C1405     Br1412   1.913       .  S
C1406      H1411   1.083       .  S
C1406      C1407   1.407   1_655  A
C1408     Br1409   1.916       .  S
C1413      H1420   1.077       .  S
C1413      C1414   1.426       .  A
C1413      C1418   1.390       .  A
C1414      C1415   1.434       .  A
C1415      C1416   1.403       .  A
C1415     Br1422   1.917       .  S
C1416      H1421   1.084       .  S
C1416      C1417   1.393       .  A
C1417      C1418   1.394       .  A
C1418     Br1419   1.923       .  S
C1423      H1430   1.077       .  S
C1423      C1424   1.419       .  A
C1423      C1428   1.399       .  A
C1424      C1425   1.434       .  A
C1425      C1426   1.395       .  A
C1425     Br1432   1.925       .  S
C1426      H1431   1.083       .  S
C1426      C1427   1.395       .  A
C1427      C1428   1.406       .  A
C1428     Br1429   1.919       .  S
C1433      H1440   1.084       .  S
C1433      C1434   1.399       .  A
C1433      C1438   1.393       .  A
C1434      C1435   1.411       .  A
C1435      C1436   1.405       .  A
C1435     Br1442   1.918       .  S
C1436      H1441   1.083       .  S
C1436      C1437   1.411       .  A
C1437      C1438   1.416       .  A
C1438     Br1439   1.911       .  S
C1443      H1450   1.084       .  S
C1443      C1444   1.405       .  A
C1443      C1448   1.395       .  A
C1444      C1445   1.416       .  A
C1445      C1446   1.402       .  A
C1445     Br1452   1.916       .  S
C1446      H1451   1.083       .  S
C1446      C1447   1.405       .  A
C1447      C1448   1.410       .  A
C1448     Br1449   1.914       .  S
C1453      H1460   1.083       .  S
C1453      C1454   1.404       .  A
C1453      C1458   1.404       .  A
C1454      C1455   1.411       .  A
C1455      C1456   1.398       .  A
C1455     Br1462   1.913       .  S
C1456      H1461   1.083       .  S
C1456      C1457   1.403       .  A
C1457      C1458   1.417       .  A
C1458     Br1459   1.917       .  S
C1463      H1470   1.083       .  S
C1463      C1464   1.403       .  A
C1463      C1468   1.395       .  A
C1464      C1465   1.418       .  A
C1465      C1466   1.405       .  A
C1465     Br1472   1.917       .  S
C1466      H1471   1.083       .  S
C1466      C1467   1.404       .  A
C1467      C1468   1.409       .  A
C1468     Br1469   1.913       .  S
C1473      H1480   1.078       .  S
C1473      C1474   1.424       .  A
C1473      C1478   1.392       .  A
C1474      C1475   1.434   1_455  A
C1475      C1476   1.402       .  A
C1475     Br1482   1.917       .  S
C1476      H1481   1.084       .  S
C1476      C1477   1.393       .  A
C1477      C1478   1.397   1_655  A
C1478     Br1479   1.923       .  S
C1483      H1490   1.083       .  S
C1483      C1488   1.404       .  A
C1484      C1485   1.407   1_455  A
C1485      C1486   1.392       .  A
C1485     Br1492   1.923       .  S
C1486      H1491   1.083       .  S
C1486      C1487   1.420   1_655  A
C1488     Br1489   1.929       .  S
C1493      H1500   1.083       .  S
C1493      C1494   1.423       .  A
C1493      C1498   1.399       .  A
C1494      C1495   1.442       .  A
C1495      C1496   1.393       .  A
C1495     Br1502   1.930       .  S
C1496      H1501   1.085       .  S
C1496      C1497   1.388       .  A
C1497      C1498   1.396       .  A
C1498     Br1499   1.917       .  S
C1503      H1510   1.083       .  S
C1503      C1504   1.397       .  A
C1503      C1508   1.395       .  A
C1504      C1505   1.401       .  A
C1505      C1506   1.397       .  A
C1505     Br1512   1.918       .  S
C1506      H1511   1.076       .  S
C1506      C1507   1.419       .  A
C1507      C1508   1.431       .  A
C1508     Br1509   1.918       .  S
C1513      H1520   1.082       .  S
C1513      C1514   1.422       .  A
C1513      C1518   1.399       .  A
C1514      C1636   1.564       .  S
C1514      C1515   1.444       .  A
C1515      C1516   1.394       .  A
C1515     Br1522   1.932       .  S
C1516      H1521   1.085       .  S
C1516      C1517   1.387       .  A
C1517      C1518   1.397       .  A
C1518     Br1519   1.916       .  S
C1523      H1530   1.080       .  S
C1523      C1524   1.414       .  A
C1523      C1528   1.391       .  A
C1524      C1636   1.554   1_545  S
C1524      C2069   1.430   1_545  A
C1525      C2068   1.430       .  A
C1525      C1526   1.401       .  A
C1525     Br1532   1.926       .  S
C1526      H1531   1.084       .  S
C1526      C2071   1.398       .  A
C1527      C2070   1.398   1_545  A
C1527      C1528   1.408       .  A
C1528     Br1529   1.923       .  S
C1533      H1540   1.080       .  S
C1533      C1534   1.416       .  A
C1533      C1538   1.390       .  A
C1534      C1636   1.576   1_545  S
C1534      C1535   1.433       .  A
C1535      C1536   1.406       .  A
C1535     Br1542   1.926       .  S
C1536      H1541   1.082       .  S
C1536      C1537   1.400       .  A
C1537      C1538   1.407       .  A
C1538     Br1539   1.924       .  S
C1543      H1550   1.079       .  S
C1543      C1544   1.423       .  A
C1543      C1548   1.391       .  A
C1544      C1545   1.431       .  A
C1545      C1546   1.402       .  A
C1545     Br1552   1.910       .  S
C1546      H1551   1.084       .  S
C1546      C1547   1.393       .  A
C1547      C1548   1.397       .  A
C1548     Br1549   1.922       .  S
C1553      H1560   1.082       .  S
C1553      C1554   1.410       .  A
C1553      C1558   1.408       .  A
C1554      C1555   1.419       .  A
C1555      C1556   1.393       .  A
C1555     Br1562   1.919       .  S
C1556      H1561   1.082       .  S
C1556      C1557   1.395       .  A
C1557      C1558   1.411       .  A
C1558     Br1559   1.917       .  S
C1563      H1570   1.082       .  S
C1563      C1564   1.410       .  A
C1563      C1568   1.393       .  A
C1564      C1565   1.418       .  A
C1565      C1566   1.409       .  A
C1565     Br1572   1.918       .  S
C1566      H1571   1.083       .  S
C1566      C1567   1.405       .  A
C1567      C1568   1.399       .  A
C1568     Br1569   1.913       .  S
C1573      H1580   1.082       .  S
C1573      C1574   1.405       .  A
C1573      C1578   1.398       .  A
C1574      C1575   1.417       .  A
C1575      C1576   1.402       .  A
C1575     Br1582   1.921       .  S
C1576      H1581   1.083       .  S
C1576      C1577   1.405       .  A
C1577      C1578   1.409       .  A
C1578     Br1579   1.918       .  S
C1583      H1590   1.083       .  S
C1583      C1584   1.403       .  A
C1583      C1588   1.403       .  A
C1584      C1585   1.407       .  A
C1585      C1586   1.397       .  A
C1585     Br1592   1.917       .  S
C1586      H1591   1.081       .  S
C1586      C1587   1.407       .  A
C1587      C1588   1.419       .  A
C1588     Br1589   1.920       .  S
C1593      H1600   1.084       .  S
C1593      C2138   1.392       .  A
C1593      C1598   1.402       .  A
C1594      C2137   1.392       .  A
C1594      C1595   1.392       .  A
C1595      C1596   1.389       .  A
C1595     Br1602   1.923       .  S
C1596      H1601   1.075       .  S
C1596      C1597   1.425   1_545  A
C1597      C1633   1.572       .  S
C1597      C2142   1.434   1_565  A
C1598      C2141   1.434       .  A
C1598     Br1599   1.916       .  S
C1603      H1610   1.077       .  S
C1603      C1604   1.422   1_545  A
C1603      C1608   1.403       .  A
C1604      C1633   1.583       .  S
C1604      C2149   1.433       .  A
C1605      C2148   1.433       .  A
C1605      C1606   1.391       .  A
C1605     Br1612   1.919       .  S
C1606      H1611   1.083       .  S
C1606      C2151   1.394       .  A
C1607      C2150   1.394       .  A
C1607      C1608   1.404   1_565  A
C1608     Br1609   1.919       .  S
C1613      H1620   1.083       .  S
C1613      C1614   1.422       .  A
C1613      C1618   1.399       .  A
C1614      C1633   1.575   1_545  S
C1614      C1615   1.446       .  A
C1615      C1616   1.393       .  A
C1615     Br1622   1.934   1_545  S
C1616      H1621   1.086       .  S
C1616      C1617   1.387       .  A
C1617      C1618   1.397       .  A
C1618     Br1619   1.916       .  S
C1623      H1630   1.084       .  S
C1623      C1624   1.399       .  A
C1623      C1628   1.400       .  A
C1624      C1625   1.405       .  A
C1625      C1626   1.391       .  A
C1625     Br1632   1.921       .  S
C1626      H1631   1.083       .  S
C1626      C1627   1.421       .  A
C1627      C1628   1.434       .  A
C1628     Br1629   1.927       .  S
C1633      C2171   1.557       .  S
C1634      C2108   1.506       .  S
C1634      C2128   1.498   1_554  S
C1635      C2098   1.506       .  S
C1635      C2121   1.499   1_554  S
C1636      C2088   1.573       .  S
C1637      C2038   1.561       .  S
C1638      C1988   1.499       .  S
C1638      C2011   1.498   1_554  S
C1639      C1978   1.493       .  S
C1639      C1998   1.500   1_554  S
C1640      N1658   1.353       .  A
C1640      C1677   1.466       .  S
C1640      C2008   1.488       .  S
N1641      N1658   1.323       .  A
N1641      N1663   1.320       .  A
N1641     Co1678   2.088       .  S
C1642      N1667   1.339       .  A
C1642      C1680   1.457       .  S
C1642      H1687   1.081       .  S
H1643      C1684   1.081       .  S
C1644      N1668   1.342       .  A
C1644      C1648   1.466       .  S
C1644      H1673   1.080       .  S
Co1645     N1663   2.090       .  S
Co1645     N1653   2.087       .  S
Co1645     N1685   2.081       .  S
Co1645     N1661   2.077       .  S
Co1645    Cl1689   2.453       .  S
N1646      C1684   1.341       .  A
N1646      N1653   1.320       .  A
N1646     Co1647   2.087       .  S
Co1647     N1650   2.092       .  S
Co1647     N1667   2.077       .  S
Co1647     N1654   2.068       .  S
Co1647    Cl1689   2.444       .  S
C1648      N1686   1.353       .  A
C1648      C2001   1.489       .  S
N1649      N1656   1.320       .  A
N1649      N1679   1.325       .  A
N1649     Co1682   2.096       .  S
N1650      N1668   1.321       .  A
N1650      N1686   1.325       .  A
N1651      C1680   1.350       .  A
N1651      N1661   1.322       .  A
H1652      C1677   1.079       .  S
N1653      N1674   1.324       .  A
N1654      N1672   1.317       .  A
N1654      N1659   1.320       .  A
C1655      N1659   1.344       .  A
C1655      C1683   1.466       .  S
C1655      C2081   1.479       .  S
N1656      C1671   1.340       .  A
N1656     Co1678   2.082       .  S
C1657      N1685   1.342       .  A
C1657      C1660   1.459       .  S
C1657      H1691   1.081       .  S
C1660      N1681   1.344       .  A
C1660      C2091   1.462       .  S
N1661      N1667   1.317       .  A
N1662      C1688   1.335       .  A
N1662      N1664   1.318       .  A
N1662     Co1678   2.069       .  S
N1663      C1677   1.342       .  A
N1664      N1692   1.326       .  A
N1664     Co1682   2.087       .  S
H1665      C1688   1.081       .  S
H1666      C1683   1.081       .  S
N1668     Co1682   2.094       .  S
N1669      N1681   1.321       .  A
N1669      N1685   1.317       .  A
N1669     Co1678   2.067       .  S
C1670      N1674   1.350       .  A
C1670      C1684   1.465       .  S
C1670      C2118   1.487       .  S
C1671      C1690   1.465       .  S
C1671      H1675   1.081       .  S
N1672      C1683   1.346       .  A
N1672     Co1682   2.091       .  S
C1676      N1692   1.353       .  A
C1676      C1688   1.454       .  S
C1676      C2048   1.473       .  S
Co1678    Cl1689   2.444       .  S
N1679      C1690   1.352       .  A
C1680      C2041   1.460       .  S
Co1682    Cl1689   2.456       .  S
C1690      C2131   1.492       .  S
C1693      N1711   1.347       .  A
C1693      C1730   1.459       .  S
C1693      C1961   1.462       .  S
N1694      N1711   1.322       .  A
N1694      N1716   1.318       .  A
N1694     Co1731   2.075       .  S
C1695      N1720   1.338       .  A
C1695      C1733   1.467       .  S
C1695      H1740   1.076       .  S
H1696      C1737   1.081       .  S
C1697      N1721   1.341       .  A
C1697      C1701   1.463       .  S
C1697      H1726   1.081       .  S
Co1698     N1716   2.080       .  S
Co1698     N1706   2.079       .  S
Co1698     N1738   2.094       .  S
Co1698     N1714   2.096       .  S
Co1698    Cl1742   2.460       .  S
N1699      C1737   1.340       .  A
N1699      N1706   1.318       .  A
N1699     Co1700   2.082       .  S
Co1700     N1703   2.081       .  S
Co1700     N1720   2.087       .  S
Co1700     N1707   2.104       .  S
Co1700    Cl1742   2.444       .  S
C1701      N1739   1.349       .  A
C1701      C1971   1.478       .  S
N1702      N1709   1.317       .  A
N1702      N1732   1.323       .  A
N1702     Co1735   2.078       .  S
N1703      N1721   1.318       .  A
N1703      N1739   1.324       .  A
N1704      C1733   1.355       .  A
N1704      N1714   1.326       .  A
H1705      C1730   1.081       .  S
N1706      N1727   1.323       .  A
N1707      N1725   1.321       .  A
N1707      N1712   1.326       .  A
C1708      N1712   1.354       .  A
C1708      C1736   1.456       .  S
C1708      C2111   1.479       .  S
N1709      C1724   1.337       .  A
N1709     Co1731   2.068       .  S
C1710      N1738   1.346       .  A
C1710      C1713   1.464       .  S
C1710      H1744   1.081       .  S
C1713      N1734   1.349       .  A
C1713      C2101   1.479       .  S
N1714      N1720   1.320       .  A
N1715      C1741   1.339       .  A
N1715      N1717   1.320       .  A
N1715     Co1731   2.083       .  S
N1716      C1730   1.341       .  A
N1717      N1745   1.325       .  A
N1717     Co1735   2.090       .  S
H1718      C1741   1.080       .  S
H1719      C1736   1.081       .  S
N1721     Co1735   2.083       .  S
N1722      N1734   1.323       .  A
N1722      N1738   1.321       .  A
N1722     Co1731   2.087       .  S
C1723      N1727   1.349       .  A
C1723      C1737   1.460       .  S
C1723      C2161   1.463       .  S
C1724      C1743   1.457       .  S
C1724      H1728   1.080       .  S
N1725      C1736   1.342       .  A
N1725     Co1735   2.082       .  S
C1729      N1745   1.352       .  A
C1729      C1741   1.463       .  S
C1729      C1991   1.484       .  S
Co1731    Cl1742   2.440       .  S
N1732      C1743   1.350       .  A
C1733      C1981   1.495       .  S
Co1735    Cl1742   2.459       .  S
C1743      C2168   1.473       .  S
C1746      C1783   1.450       .  S
C1746      C2071   1.471       .  S
N1747      N1764   1.326       .  A
N1747     Co1784   2.093       .  S
C1748      N1773   1.341       .  A
C1748      C1786   1.464       .  S
C1748      H1793   1.080       .  S
H1749      C1790   1.081       .  S
C1750      N1774   1.339       .  A
C1750      H1779   1.081       .  S
Co1751     N1769   2.059       .  S
Co1751     N1759   2.074       .  S
Co1751     N1791   2.088       .  S
Co1751     N1767   2.083       .  S
N1752      C1790   1.342       .  A
N1752     Co1753   2.081       .  S
Co1753     N1756   2.082       .  S
Co1753     N1773   2.090       .  S
Co1753     N1760   2.083       .  S
Co1753    Cl1795   2.456   1_655  S
C1754      N1792   1.351       .  A
C1754      C2061   1.462       .  S
N1755      N1785   1.321       .  A
N1755     Co1788   2.077       .  S
N1756      N1792   1.324       .  A
N1757      N1767   1.324       .  A
H1758      C1783   1.080       .  S
N1759      N1780   1.322       .  A
N1760      N1765   1.326       .  A
C1761      N1765   1.349       .  A
C1761      C1931   1.481       .  S
N1762      C1777   1.343       .  A
N1762     Co1784   2.086       .  S
C1763      N1791   1.340       .  A
C1763      C1766   1.464       .  S
C1763      H1797   1.081       .  S
C1766      C1921   1.481       .  S
N1768      C1794   1.341       .  A
N1768     Co1784   2.092       .  S
N1769      C1783   1.333       .  A
N1770      N1798   1.325       .  A
N1770     Co1788   2.096       .  S
H1771      C1794   1.076       .  S
H1772      C1789   1.081       .  S
N1774     Co1788   2.078       .  S
N1775      N1787   1.325       .  A
N1775     Co1784   2.083       .  S
C1776      C1790   1.459       .  S
C1776      C2021   1.465       .  S
C1777      H1781   1.081       .  S
N1778      C1789   1.341       .  A
N1778     Co1788   2.096       .  S
C1782      N1798   1.357   1_455  A
C1782      C1951   1.499       .  S
N1785      C1796   1.346   1_655  A
C1786      C1938   1.484       .  S
C1796      C2028   1.482       .  S
C1799      C1836   1.458       .  S
C1799      C1861   1.477       .  S
N1800      N1817   1.326       .  A
N1800     Co1837   2.087       .  S
C1801      N1826   1.340       .  A
C1801      C1839   1.466       .  S
C1801      H1846   1.081       .  S
H1802      C1843   1.081       .  S
C1803      N1827   1.340       .  A
C1803      H1832   1.081       .  S
Co1804     N1822   2.069       .  S
Co1804     N1812   2.077       .  S
Co1804     N1844   2.087       .  S
Co1804     N1820   2.083       .  S
N1805      C1843   1.339       .  A
N1805     Co1806   2.067       .  S
Co1806     N1809   2.074       .  S
Co1806     N1826   2.085       .  S
Co1806     N1813   2.082       .  S
Co1806    Cl1848   2.445   1_655  S
C1807      N1845   1.347   1_455  A
C1807      C1871   1.460       .  S
N1808      N1838   1.327       .  A
N1808     Co1841   2.086       .  S
N1809      N1845   1.322       .  A
N1810      N1820   1.323       .  A
H1811      C1836   1.081       .  S
N1812      N1833   1.323       .  A
N1813      N1818   1.324       .  A
C1814      N1818   1.350   1_455  A
C1814      C1878   1.485       .  S
N1815      C1830   1.335       .  A
N1815     Co1837   2.071       .  S
C1816      N1844   1.341       .  A
C1816      C1819   1.463       .  S
C1816      H1850   1.081       .  S
C1819      C1888   1.485       .  S
N1821      C1847   1.341       .  A
N1821     Co1837   2.094       .  S
N1822      C1836   1.336       .  A
N1823      N1851   1.324       .  A
N1823     Co1841   2.091       .  S
H1824      C1847   1.080       .  S
H1825      C1842   1.080       .  S
N1827     Co1841   2.079       .  S
N1828      N1840   1.325       .  A
N1828     Co1837   2.089       .  S
C1829      C1843   1.453       .  S
C1829      C2138   1.458       .  S
C1830      H1834   1.081       .  S
N1831      C1842   1.344       .  A
N1831     Co1841   2.098       .  S
C1835      N1851   1.351       .  A
C1835      C1898   1.494       .  S
N1838      C1849   1.352       .  A
C1839      C1911   1.489       .  S
C1849      C2151   1.478       .  S
C1852      C1891   1.495       .  S
C1852      C1948   1.498       .  S
C1852      C1853   1.371       .  D
C1853      C1881   1.502       .  S
C1853      C1941   1.497       .  S
C1854      C1901   1.499       .  S
C1854      C1918   1.497       .  S
C1854      C1855   1.372       .  D
C1855      C1908   1.491       .  S
C1855      C1928   1.512       .  S
C1856      C1858   1.555       .  S
C1856      C1868   1.571       .  S
C1856      C1958   1.581       .  S
C1857      H1864   1.077       .  S
C1857      C1858   1.416       .  A
C1857      C1862   1.399       .  A
C1859      C1860   1.393       .  A
C1859     Br1866   1.926       .  S
C1860      H1865   1.082       .  S
C1860      C1861   1.397       .  A
C1862     Br1863   1.919       .  S
C1867      H1874   1.083       .  S
C1867      C1872   1.398       .  A
C1868      C1869   1.446       .  A
C1869      C1870   1.393       .  A
C1869     Br1876   1.933       .  S
C1870      H1875   1.086       .  S
C1871      C1872   1.395       .  A
C1872     Br1873   1.917       .  S
C1877      H1884   1.084       .  S
C1877      C1878   1.402   1_655  A
C1877      C1882   1.398       .  A
C1879      C1880   1.404       .  A
C1879     Br1886   1.917       .  S
C1880      H1885   1.082       .  S
C1880      C1881   1.407       .  A
C1882     Br1883   1.920       .  S
C1887      H1894   1.083       .  S
C1887      C1888   1.407       .  A
C1887      C1892   1.402       .  A
C1889      C1890   1.397       .  A
C1889     Br1896   1.921       .  S
C1890      H1895   1.082       .  S
C1890      C1891   1.405       .  A
C1892     Br1893   1.916       .  S
C1897      H1904   1.081       .  S
C1897      C1902   1.399       .  A
C1898      C1899   1.420       .  A
C1899      C1900   1.402       .  A
C1899     Br1906   1.921       .  S
C1900      H1905   1.083       .  S
C1901      C1902   1.406   1_545  A
C1902     Br1903   1.915       .  S
C1907      H1914   1.083       .  S
C1907      C1908   1.401   1_565  A
C1907      C1912   1.399       .  A
C1909      C1910   1.397       .  A
C1909     Br1916   1.916       .  S
C1910      H1915   1.081       .  S
C1910      C1911   1.408       .  A
C1912     Br1913   1.922       .  S
C1917      H1924   1.080       .  S
C1917      C1922   1.392       .  A
C1918      C1919   1.413   1_545  A
C1919      C1920   1.405       .  A
C1919     Br1926   1.917       .  S
C1920      H1925   1.083       .  S
C1921      C1922   1.407       .  A
C1922     Br1923   1.920       .  S
C1927      H1934   1.078       .  S
C1927      C1932   1.392       .  A
C1928      C1929   1.419       .  A
C1929      C1930   1.409       .  A
C1929     Br1936   1.916       .  S
C1930      H1935   1.083       .  S
C1931      C1932   1.402       .  A
C1932     Br1933   1.923       .  S
C1937      H1944   1.082       .  S
C1937      C1942   1.397       .  A
C1938      C1939   1.414       .  A
C1939      C1940   1.402       .  A
C1939     Br1946   1.918       .  S
C1940      H1945   1.082       .  S
C1941      C1942   1.411       .  A
C1942     Br1943   1.918       .  S
C1947      H1954   1.084       .  S
C1947      C1948   1.401       .  A
C1947      C1952   1.405       .  A
C1949      C1950   1.399       .  A
C1949     Br1956   1.913       .  S
C1950      H1955   1.083       .  S
C1950      C1951   1.407   1_655  A
C1952     Br1953   1.916       .  S
C1957      H1964   1.077       .  S
C1957      C1958   1.426       .  A
C1957      C1962   1.390       .  A
C1958      C1959   1.434       .  A
C1959      C1960   1.403       .  A
C1959     Br1966   1.917       .  S
C1960      H1965   1.084       .  S
C1960      C1961   1.393       .  A
C1961      C1962   1.394       .  A
C1962     Br1963   1.923       .  S
C1967      H1974   1.077       .  S
C1967      C1968   1.419       .  A
C1967      C1972   1.399       .  A
C1968      C1969   1.434       .  A
C1969      C1970   1.395       .  A
C1969     Br1976   1.925       .  S
C1970      H1975   1.083       .  S
C1970      C1971   1.395       .  A
C1971      C1972   1.406       .  A
C1972     Br1973   1.919       .  S
C1977      H1984   1.084       .  S
C1977      C1978   1.399       .  A
C1977      C1982   1.393       .  A
C1978      C1979   1.411       .  A
C1979      C1980   1.405       .  A
C1979     Br1986   1.918       .  S
C1980      H1985   1.083       .  S
C1980      C1981   1.411       .  A
C1981      C1982   1.416       .  A
C1982     Br1983   1.911       .  S
C1987      H1994   1.084       .  S
C1987      C1988   1.405       .  A
C1987      C1992   1.395       .  A
C1988      C1989   1.416       .  A
C1989      C1990   1.402       .  A
C1989     Br1996   1.916       .  S
C1990      H1995   1.083       .  S
C1990      C1991   1.405       .  A
C1991      C1992   1.410       .  A
C1992     Br1993   1.914       .  S
C1997      H2004   1.083       .  S
C1997      C1998   1.404       .  A
C1997      C2002   1.404       .  A
C1998      C1999   1.411       .  A
C1999      C2000   1.398       .  A
C1999     Br2006   1.913       .  S
C2000      H2005   1.083       .  S
C2000      C2001   1.403       .  A
C2001      C2002   1.417       .  A
C2002     Br2003   1.917       .  S
C2007      H2014   1.083       .  S
C2007      C2008   1.403       .  A
C2007      C2012   1.395       .  A
C2008      C2009   1.418       .  A
C2009      C2010   1.405       .  A
C2009     Br2016   1.917       .  S
C2010      H2015   1.083       .  S
C2010      C2011   1.404       .  A
C2011      C2012   1.409       .  A
C2012     Br2013   1.913       .  S
C2017      H2024   1.078       .  S
C2017      C2018   1.424       .  A
C2017      C2022   1.392       .  A
C2018      C2019   1.434   1_455  A
C2019      C2020   1.402       .  A
C2019     Br2026   1.917       .  S
C2020      H2025   1.084       .  S
C2020      C2021   1.393       .  A
C2021      C2022   1.397   1_655  A
C2022     Br2023   1.923       .  S
C2027      H2034   1.083       .  S
C2027      C2032   1.404       .  A
C2028      C2029   1.407   1_455  A
C2029      C2030   1.392       .  A
C2029     Br2036   1.923       .  S
C2030      H2035   1.083       .  S
C2030      C2031   1.420   1_655  A
C2032     Br2033   1.929       .  S
C2037      H2044   1.083       .  S
C2037      C2038   1.423       .  A
C2037      C2042   1.399       .  A
C2038      C2039   1.442       .  A
C2039      C2040   1.393       .  A
C2039     Br2046   1.930       .  S
C2040      H2045   1.085       .  S
C2040      C2041   1.388       .  A
C2041      C2042   1.396       .  A
C2042     Br2043   1.917       .  S
C2047      H2054   1.083       .  S
C2047      C2048   1.397       .  A
C2047      C2052   1.395       .  A
C2048      C2049   1.401       .  A
C2049      C2050   1.397       .  A
C2049     Br2056   1.918       .  S
C2050      H2055   1.076       .  S
C2050      C2051   1.419       .  A
C2051      C2052   1.431       .  A
C2052     Br2053   1.918       .  S
C2057      H2064   1.082       .  S
C2057      C2058   1.422       .  A
C2057      C2062   1.399       .  A
C2058      C2059   1.444       .  A
C2059      C2060   1.394       .  A
C2059     Br2066   1.932       .  S
C2060      H2065   1.085       .  S
C2060      C2061   1.387       .  A
C2061      C2062   1.397       .  A
C2062     Br2063   1.916       .  S
C2067      H2074   1.080       .  S
C2067      C2068   1.414       .  A
C2067      C2072   1.391       .  A
C2069      C2070   1.401       .  A
C2069     Br2076   1.926       .  S
C2070      H2075   1.084       .  S
C2071      C2072   1.408       .  A
C2072     Br2073   1.923       .  S
C2077      H2084   1.080       .  S
C2077      C2078   1.416       .  A
C2077      C2082   1.390       .  A
C2078      C2079   1.433       .  A
C2079      C2080   1.406       .  A
C2079     Br2086   1.926       .  S
C2080      H2085   1.082       .  S
C2080      C2081   1.400       .  A
C2081      C2082   1.407       .  A
C2082     Br2083   1.924       .  S
C2087      H2094   1.079       .  S
C2087      C2088   1.423       .  A
C2087      C2092   1.391       .  A
C2088      C2089   1.431       .  A
C2089      C2090   1.402       .  A
C2089     Br2096   1.910       .  S
C2090      H2095   1.084       .  S
C2090      C2091   1.393       .  A
C2091      C2092   1.397       .  A
C2092     Br2093   1.922       .  S
C2097      H2104   1.082       .  S
C2097      C2098   1.410       .  A
C2097      C2102   1.408       .  A
C2098      C2099   1.419       .  A
C2099      C2100   1.393       .  A
C2099     Br2106   1.919       .  S
C2100      H2105   1.082       .  S
C2100      C2101   1.395       .  A
C2101      C2102   1.411       .  A
C2102     Br2103   1.917       .  S
C2107      H2114   1.082       .  S
C2107      C2108   1.410       .  A
C2107      C2112   1.393       .  A
C2108      C2109   1.418       .  A
C2109      C2110   1.409       .  A
C2109     Br2116   1.918       .  S
C2110      H2115   1.083       .  S
C2110      C2111   1.405       .  A
C2111      C2112   1.399       .  A
C2112     Br2113   1.913       .  S
C2117      H2124   1.082       .  S
C2117      C2118   1.405       .  A
C2117      C2122   1.398       .  A
C2118      C2119   1.417       .  A
C2119      C2120   1.402       .  A
C2119     Br2126   1.921       .  S
C2120      H2125   1.083       .  S
C2120      C2121   1.405       .  A
C2121      C2122   1.409       .  A
C2122     Br2123   1.918       .  S
C2127      H2134   1.083       .  S
C2127      C2128   1.403       .  A
C2127      C2132   1.403       .  A
C2128      C2129   1.407       .  A
C2129      C2130   1.397       .  A
C2129     Br2136   1.917       .  S
C2130      H2135   1.081       .  S
C2130      C2131   1.407       .  A
C2131      C2132   1.419       .  A
C2132     Br2133   1.920       .  S
C2137      H2144   1.084       .  S
C2137      C2142   1.402       .  A
C2138      C2139   1.392       .  A
C2139      C2140   1.389       .  A
C2139     Br2146   1.923       .  S
C2140      H2145   1.075       .  S
C2140      C2141   1.425       .  A
C2142     Br2143   1.916       .  S
C2147      H2154   1.077       .  S
C2147      C2148   1.422       .  A
C2147      C2152   1.403       .  A
C2149      C2150   1.391       .  A
C2149     Br2156   1.919       .  S
C2150      H2155   1.083       .  S
C2151      C2152   1.404       .  A
C2152     Br2153   1.919       .  S
C2157      H2164   1.083       .  S
C2157      C2158   1.422       .  A
C2157      C2162   1.399       .  A
C2158      C2159   1.446       .  A
C2159      C2160   1.393       .  A
C2159     Br2166   1.934       .  S
C2160      H2165   1.086       .  S
C2160      C2161   1.387       .  A
C2161      C2162   1.397       .  A
C2162     Br2163   1.916       .  S
C2167      H2174   1.084       .  S
C2167      C2168   1.399       .  A
C2167      C2172   1.400       .  A
C2168      C2169   1.405       .  A
C2169      C2170   1.391       .  A
C2169     Br2176   1.921       .  S
C2170      H2175   1.083       .  S
C2170      C2171   1.421       .  A
C2171      C2172   1.434       .  A
C2172     Br2173   1.927       .  S
