geometry optimzed in LAMMPS
_audit_creation_date              2020-12-01 
_audit_creation_method            'lammps2cif' 
_symmetry_space_group_name_H-M    'P1' 
_symmetry_Int_Tables_number       1 
_symmetry_cell_setting            triclinic 
loop_ 
_symmetry_equiv_pos_as_xyz 
  x,y,z 
_cell_length_a                    34.02414108 
_cell_length_b                    33.62103911323273 
_cell_length_c                    42.6116334371955 
_cell_angle_alpha                 89.7958749384188 
_cell_angle_beta                  89.6830324247017 
_cell_angle_gamma                 124.79340866658802 
loop_ 
_atom_site_label 
_atom_site_type_symbol 
_atom_site_fract_x 
_atom_site_fract_y 
_atom_site_fract_z 
_atom_site_charge 
N1          N  0.89466188  0.43626061  0.48988028    -0.03000
C2          C  0.88811282  0.45640911  0.46410843    -0.02000
C3          C  0.88213294  0.49189655  0.47357704    -0.23300
C4          C  0.86629917  0.46626761  0.99734418    -0.23500
C5          C  0.87155843  0.43026806  0.00708338    -0.00500
H6          H  0.87130599  0.51031080  0.45886829     0.13300
H7          H  0.85402098  0.48396979  0.01138756     0.13300
N8          N  0.37532132  0.92141758  0.48496706    -0.03000
C9          C  0.36072387  0.93545940  0.45994408    -0.00400
C10         C  0.33103031  0.94849258  0.47057012    -0.23300
C11         C  0.32953315  0.94543646  0.50250494    -0.23500
C12         C  0.42545608  0.96057936  0.01769620    -0.00500
H13         H  0.31811265  0.96610713  0.45712541     0.13300
H14         H  0.39900518  0.00490900  0.03074053     0.13300
N15         N  0.38458975  0.38651479  0.48545812    -0.03000
C16         C  0.37378479  0.35862518  0.01607906    -0.00400
C17         C  0.33854171  0.31037635  0.01035546    -0.23300
C18         C  0.33047485  0.30824663  0.47388474    -0.23500
C19         C  0.36503589  0.35329247  0.46147062    -0.00500
H20         H  0.32351222  0.28091811  0.02720391     0.13300
H21         H  0.31255779  0.27419316  0.46153121     0.13300
O22         O  0.63005299  0.26578216  0.28236587    -0.84900
O23         O  0.55311960  0.17500323  0.26519695    -0.81900
C24         C  0.51654735  0.16591223  0.28004701     0.98600
O25         O  0.49794862  0.18842024  0.27407637    -0.82000
O26         O  0.49509285  0.26595444  0.25884175    -0.84600
C27         C  0.52070903  0.29709419  0.27957085     1.03100
O28         O  0.56573949  0.31878830  0.27885170    -0.77400
O29         O  0.65578778  0.33786061  0.26503197    -0.77600
C30         C  0.65899951  0.31108360  0.28417705     1.03000
O31         O  0.65970435  0.28803958  0.21719995    -0.84900
O32         O  0.58059224  0.20083106  0.20080358    -0.82000
C33         C  0.53711902  0.17021710  0.19488378     0.98600
O34         O  0.50482943  0.17070049  0.20936743    -0.82000
O35         O  0.51102153  0.25390873  0.19362746    -0.84600
C36         C  0.52358316  0.29710776  0.19282533     1.03100
O37         O  0.55147389  0.32594027  0.21368715    -0.77400
O38         O  0.63513690  0.33196386  0.19995436    -0.77600
C39         C  0.66229955  0.31768263  0.19740257     1.03000
Cr40       Cr  0.60325540  0.23454365  0.24131200     1.93700
Cr41       Cr  0.50709511  0.22266605  0.23415816     1.93200
Cr42       Cr  0.59976915  0.32375104  0.23936130     1.39100
O43         O  0.56996166  0.26000172  0.23827852    -1.22600
N44         N  0.92298066  0.41697430  0.49066493    -0.03000
C45         C  0.92819337  0.39321692  0.46663394    -0.00400
C46         C  0.93427399  0.35899541  0.47894604    -0.23300
C47         C  0.92083064  0.33728965  0.00143916    -0.23500
C48         C  0.91725502  0.37507787  0.00911495    -0.00500
H49         H  0.94426790  0.33845626  0.46587532     0.13300
H50         H  0.93257490  0.32017348  0.01657719     0.13300
N51         N  0.38992928  0.88890437  0.48382399    -0.03000
C52         C  0.46502615  0.89869175  0.00714386    -0.00400
C53         C  0.49409750  0.88782166  0.99253109    -0.23300
C54         C  0.41682071  0.84516743  0.46564260    -0.23500
C55         C  0.39635331  0.86926130  0.45755895    -0.00500
H56         H  0.50933566  0.87040201  0.00335443     0.13300
H57         H  0.42346826  0.82397500  0.45028448     0.13300
N58         N  0.40330935  0.43693356  0.48307919    -0.03000
C59         C  0.41809523  0.46279685  0.45585865    -0.00400
C60         C  0.45323834  0.51092767  0.46230080    -0.23300
C61         C  0.45754499  0.51543092  0.49418619    -0.23500
C62         C  0.42402693  0.47034723  0.50686211    -0.00500
H63         H  0.46816745  0.54114929  0.44607494     0.13300
H64         H  0.47689698  0.54672368  0.00950851     0.13300
O65         O  0.25810210  0.65776084  0.20345865    -0.84900
O66         O  0.17486552  0.57107871  0.18881537    -0.81900
C67         C  0.14553377  0.52600635  0.18627401     0.98600
O68         O  0.14716745  0.49747413  0.20473848    -0.82000
O69         O  0.23343249  0.50844853  0.19258361    -0.84600
C70         C  0.27765456  0.52609166  0.19255144     1.03100
O71         O  0.30407957  0.55621266  0.21336458    -0.77400
O72         O  0.30739558  0.63657842  0.19405298    -0.77600
C73         C  0.29216500  0.66217032  0.18761783     1.03000
O74         O  0.23247640  0.63563655  0.26931292    -0.84900
O75         O  0.14680982  0.55073559  0.25400751    -0.82000
C76         C  0.14138821  0.51900642  0.27324865     0.98600
O77         O  0.16711547  0.50330623  0.27064502    -0.82000
O78         O  0.24478084  0.50168666  0.25880475    -0.84600
C79         C  0.27409462  0.53042677  0.27917036     1.03100
O80         O  0.29227697  0.57523838  0.27685855    -0.77400
O81         O  0.30610671  0.66191583  0.25740468    -0.77600
C82         C  0.27674275  0.66519258  0.27340981     1.03000
Cr83       Cr  0.20544507  0.60153667  0.22915533     1.93700
Cr84       Cr  0.20061113  0.50760392  0.23153273     1.93200
Cr85       Cr  0.29748930  0.60491345  0.23526424     1.39100
O86         O  0.23446086  0.57152558  0.23182167    -1.22600
C87         C  0.38873740  0.45102053  0.42694115     0.01800
C88         C  0.33895252  0.43140758  0.42839099     0.04600
C89         C  0.31701054  0.43831624  0.40292942    -0.11400
C90         C  0.34448267  0.46615250  0.37668905     0.23900
C91         C  0.39256211  0.48169106  0.37407307    -0.12000
C92         C  0.41368055  0.47196691  0.39841614     0.05300
C93         C  0.32324388  0.48005836  0.35223086     0.27700
C94         C  0.31327959  0.45916724  0.32222818    -0.12700
C95         C  0.29826313  0.47621486  0.29811552     0.05800
C96         C  0.28885345  0.51137679  0.30463819    -0.08700
C97         C  0.29388209  0.52823968  0.33564010     0.06700
C98         C  0.31361412  0.51482832  0.35884621    -0.13000
Br99       Br  0.43101989  0.52011722  0.33839517    -0.05100
Br100      Br  0.29839502  0.39285571  0.46351771     0.00500
Br101      Br  0.29347770  0.45261625  0.25603168     0.01000
Br102      Br  0.32869745  0.54525772  0.39946885    -0.03400
Br103      Br  0.47800198  0.48912966  0.39330789     0.01100
Br104      Br  0.24907714  0.41009479  0.40381534    -0.02700
Br105      Br  0.32011762  0.40693831  0.31425733    -0.03600
Br106      Br  0.26904689  0.56534808  0.34736652     0.00400
C107        C  0.29888110  0.51110246  0.16868943     0.01800
C108        C  0.34497190  0.54540136  0.15573588     0.04600
C109        C  0.36276684  0.53218539  0.13098360    -0.11400
C110        C  0.33623025  0.48419787  0.11995652     0.23900
C111        C  0.29160372  0.44935540  0.13390812    -0.12000
C112        C  0.27316647  0.46252961  0.15835756     0.05300
C113        C  0.35453105  0.47215612  0.09229264     0.27700
C114        C  0.33902189  0.47398740  0.06213771    -0.12700
C115        C  0.36265711  0.47269100  0.03529833     0.05800
C116        C  0.39975454  0.46543342  0.03814321    -0.08700
C117        C  0.41874909  0.46993026  0.06840716     0.06700
C118        C  0.39431950  0.46968963  0.09534944    -0.13000
Br119      Br  0.25478801  0.38383125  0.11878905    -0.05100
Br120      Br  0.38482254  0.61122018  0.17088246     0.00500
Br121      Br  0.35283846  0.50171742  0.49484455     0.01000
Br122      Br  0.41734410  0.46953900  0.13660766    -0.03400
Br123      Br  0.21426614  0.41267541  0.17904302     0.01100
Br124      Br  0.42265023  0.58090122  0.11065794    -0.02700
Br125      Br  0.28883691  0.48425388  0.05778582    -0.03600
Br126      Br  0.48346350  0.48858973  0.07297979     0.00400
C127        C  0.37724953  0.86256180  0.42508707     0.01800
C128        C  0.40884397  0.87391276  0.39928216     0.04600
C129        C  0.39080578  0.85195358  0.37002736    -0.11400
C130        C  0.34223591  0.81392662  0.36731777     0.23900
C131        C  0.31012417  0.80489723  0.39175271    -0.12000
C132        C  0.32736730  0.83081295  0.41995621     0.05300
C133        C  0.32711555  0.77789777  0.34196836     0.27700
C134        C  0.29613514  0.77288833  0.31816637    -0.12700
C135        C  0.27767641  0.73455357  0.29666865     0.05800
C136        C  0.29469828  0.70467078  0.29657043    -0.08700
C137        C  0.32959403  0.71323369  0.31859145     0.06700
C138        C  0.34310043  0.74731459  0.34244343    -0.13000
Br139      Br  0.24314572  0.75247583  0.38823347    -0.05100
Br140      Br  0.47741608  0.91204526  0.40448744     0.00500
Br141      Br  0.23012269  0.72450176  0.26707589     0.01000
Br142      Br  0.38222139  0.75063105  0.37655436    -0.03400
Br143      Br  0.28152144  0.81782000  0.45182952     0.01100
Br144      Br  0.43347615  0.86838373  0.33466474    -0.02700
Br145      Br  0.28008949  0.81934363  0.31482895    -0.03600
Br146      Br  0.35974777  0.67904613  0.31663647     0.00400
C147        C  0.31570331  0.69891249  0.16192761     0.01800
C148        C  0.32803471  0.74642294  0.16628737     0.04600
C149        C  0.34952752  0.78080062  0.14170594    -0.11400
C150        C  0.36366402  0.76989415  0.11371994     0.23900
C151        C  0.35392680  0.72327324  0.11005500    -0.12000
C152        C  0.32750539  0.68721895  0.13314354     0.05300
C153        C  0.38845815  0.80674155  0.08798697     0.27700
C154        C  0.36644171  0.79751396  0.05854657    -0.12700
C155        C  0.39383972  0.82406658  0.03218589     0.05800
C156        C  0.43836419  0.86908836  0.03577431    -0.08700
C157        C  0.46140241  0.87796735  0.06509928     0.06700
C158        C  0.43665102  0.84667458  0.09100204    -0.13000
Br159      Br  0.37798246  0.70881350  0.07377711    -0.05100
Br160      Br  0.31944882  0.76641067  0.20659769     0.00500
Br161      Br  0.38264096  0.78624725  0.99510066     0.01000
Br162      Br  0.46998191  0.85621919  0.12978663    -0.03400
Br163      Br  0.30425952  0.62107738  0.12382285     0.01100
Br164      Br  0.35917669  0.84273821  0.14641815    -0.02700
Br165      Br  0.30003854  0.74512794  0.05313934    -0.03600
Br166      Br  0.52923552  0.92626548  0.06845868     0.00400
C167        C  0.10765783  0.50609371  0.16231220     0.01800
C168        C  0.10669102  0.47729896  0.13799332     0.04600
C169        C  0.07000111  0.45715973  0.11564564    -0.11400
C170        C  0.03388096  0.46549496  0.11751105     0.23900
C171        C  0.03421112  0.49357617  0.14209641    -0.12000
C172        C  0.07141816  0.51442178  0.16425010     0.05300
C173        C  0.99699903  0.44594171  0.09262652     0.27700
C174        C  0.00523637  0.47380754  0.06556882    -0.12700
C175        C  0.97537274  0.45272627  0.03923415     0.05800
C176        C  0.93834697  0.40219667  0.03924561    -0.08700
C177        C  0.92804754  0.37562279  0.06777008     0.06700
C178        C  0.95687228  0.39775007  0.09433065    -0.13000
Br179      Br  0.98315388  0.50250360  0.14550573    -0.05100
Br180      Br  0.15705546  0.46745431  0.13425475     0.00500
Br181      Br  0.00293054  0.52231276  0.50960135     0.01000
Br182      Br  0.94396824  0.36122820  0.13266777    -0.03400
Br183      Br  0.07218264  0.55360425  0.19754932     0.01100
Br184      Br  0.06924721  0.41823558  0.08212685    -0.02700
Br185      Br  0.06022300  0.54041448  0.06404877    -0.03600
Br186      Br  0.87583893  0.30792748  0.07100331     0.00400
C187        C  0.10442928  0.49968221  0.29886787     0.01800
C188        C  0.09176024  0.52935261  0.31251973     0.04600
C189        C  0.05768453  0.51130817  0.33706959    -0.11400
C190        C  0.03818953  0.46485859  0.34997535     0.23900
C191        C  0.05171861  0.43571042  0.33716355    -0.12000
C192        C  0.08292603  0.45199801  0.31099548     0.05300
C193        C  0.00863963  0.44915874  0.37942145     0.27700
C194        C  0.03179348  0.46738706  0.40834029    -0.12700
C195        C  0.00560612  0.44988347  0.43671194     0.05800
C196        C  0.95491208  0.41644444  0.43659238    -0.08700
C197        C  0.93291891  0.39487129  0.40778309     0.06700
C198        C  0.95917205  0.41191371  0.37926289    -0.13000
Br199      Br  0.03007961  0.37453798  0.35701027    -0.05100
Br200      Br  0.12388532  0.59670276  0.30046394     0.00500
Br201      Br  0.04172280  0.46233132  0.47456048     0.01000
Br202      Br  0.92833352  0.38171985  0.34021362    -0.03400
Br203      Br  0.09431088  0.40721939  0.29194638     0.01100
Br204      Br  0.03991770  0.55187924  0.35416429    -0.02700
Br205      Br  0.10082925  0.51240340  0.40907032    -0.03600
Br206      Br  0.86892801  0.33670884  0.40835329     0.00400
C207        C  0.40379501  0.37139779  0.04471108     0.01800
C208        C  0.38068614  0.35688046  0.07429666     0.04600
C209        C  0.40336343  0.35257324  0.10030929    -0.11400
C210        C  0.44766076  0.35859290  0.09633291     0.23900
C211        C  0.47223000  0.37605932  0.06737621    -0.12000
C212        C  0.45196546  0.38597689  0.04242712     0.05300
C213        C  0.46673617  0.34361526  0.12176079     0.27700
C214        C  0.50881275  0.37815140  0.13781181    -0.12700
C215        C  0.52916176  0.36306435  0.15944076     0.05800
C216        C  0.50400318  0.31349579  0.16850972    -0.08700
C217        C  0.45898396  0.27978726  0.15459832     0.06700
C218        C  0.44269414  0.29421019  0.12968888    -0.13000
Br219      Br  0.53196717  0.38267974  0.06079023    -0.05100
Br220      Br  0.31725575  0.34204270  0.07886977     0.00500
Br221      Br  0.59253913  0.41120080  0.17485181     0.01000
Br222      Br  0.38754881  0.24573397  0.10596305    -0.03400
Br223      Br  0.48739207  0.42495350  0.50755593     0.01100
Br224      Br  0.37234883  0.33533235  0.14097567    -0.02700
Br225      Br  0.53791684  0.44635881  0.13071895    -0.03600
Br226      Br  0.41569141  0.21508138  0.17147148     0.00400
C227        C  0.49773330  0.30935853  0.30400870     0.01800
C228        C  0.51699678  0.35833332  0.31090054     0.04600
C229        C  0.49724311  0.37014147  0.33533497    -0.11400
C230        C  0.45770304  0.33328288  0.35288601     0.23900
C231        C  0.43721633  0.28441509  0.34527525    -0.12000
C232        C  0.45633741  0.27244109  0.32055335     0.05300
C233        C  0.43788787  0.34507026  0.37992277     0.27700
C234        C  0.45329456  0.34512899  0.41045229    -0.12700
C235        C  0.42848316  0.34615296  0.43668295     0.05800
C236        C  0.39198007  0.35411169  0.43299125    -0.08700
C237        C  0.37357047  0.34882244  0.40232653     0.06700
C238        C  0.39759790  0.34643096  0.37594706    -0.13000
Br239      Br  0.38348353  0.23364191  0.36960976    -0.05100
Br240      Br  0.56785121  0.40956186  0.28511703     0.00500
Br241      Br  0.43642335  0.31443741  0.97741473     0.01000
Br242      Br  0.37300616  0.34034962  0.33427264    -0.03400
Br243      Br  0.42490023  0.20508609  0.30987395     0.01100
Br244      Br  0.52468665  0.43690804  0.34500441    -0.02700
Br245      Br  0.50516865  0.33784620  0.41627110    -0.03600
Br246      Br  0.30958149  0.33171662  0.39662997     0.00400
C247        C  0.49501595  0.12809834  0.30460397     0.01800
C248        C  0.49318488  0.14051192  0.33584124     0.04600
C249        C  0.47067733  0.10421213  0.35910586    -0.11400
C250        C  0.45310521  0.05592856  0.35166672     0.23900
C251        C  0.45652265  0.04382646  0.32064690    -0.12000
C252        C  0.47567432  0.07948582  0.29693585     0.05300
C253        C  0.43003347  0.01789634  0.37642695     0.27700
C254        C  0.45808443  0.01515959  0.39926109    -0.12700
C255        C  0.43626055  0.98453601  0.42569110     0.05800
C256        C  0.38541860  0.95478279  0.42868100    -0.08700
C257        C  0.35787517  0.95293327  0.40299403     0.06700
C258        C  0.37996736  0.98598772  0.37790582    -0.13000
Br259      Br  0.43484091  0.97835086  0.31074845    -0.05100
Br260      Br  0.52346308  0.20754610  0.34701801     0.00500
Br261      Br  0.47817755  0.98666945  0.45714532     0.01000
Br262      Br  0.34144380  0.99079017  0.34695322    -0.03400
Br263      Br  0.47152827  0.06073059  0.25379807     0.01100
Br264      Br  0.46295005  0.12043316  0.40103730    -0.02700
Br265      Br  0.52699576  0.05612657  0.39486342    -0.03600
Br266      Br  0.28922083  0.90631805  0.40195276     0.00400
C267        C  0.44635586  0.96436131  0.04901716     0.01800
C268        C  0.49540538  0.00107869  0.05362730     0.04600
C269        C  0.51069121  0.02817862  0.08136974    -0.11400
C270        C  0.47724213  0.01810957  0.10499705     0.23900
C271        C  0.42993016  0.97687952  0.10275772    -0.12000
C272        C  0.41475229  0.94946496  0.07499774     0.05300
C273        C  0.49041279  0.05513919  0.12923887     0.27700
C274        C  0.51767726  0.05936151  0.15532962    -0.12700
C275        C  0.53533527  0.09859675  0.17595608     0.05800
C276        C  0.52327342  0.13209731  0.17151767    -0.08700
C277        C  0.49637078  0.12797418  0.14519153     0.06700
C278        C  0.48024006  0.08981797  0.12400300    -0.13000
Br279      Br  0.38487468  0.96251562  0.13599099    -0.05100
Br280      Br  0.44614762  0.04266156  0.50053283     0.00500
Br281      Br  0.57709308  0.10683501  0.20958802     0.01000
Br282      Br  0.44568524  0.08606960  0.08701682    -0.03400
Br283      Br  0.34839588  0.89692575  0.07006057     0.01100
Br284      Br  0.57644442  0.08339604  0.08542946    -0.02700
Br285      Br  0.53109510  0.01148738  0.16227200    -0.03600
Br286      Br  0.48555644  0.17722025  0.13639821     0.00400
C287        C  0.69855390  0.33309462  0.30744829     0.01800
C288        C  0.71267799  0.37640870  0.32306586     0.04600
C289        C  0.75088141  0.39764495  0.34446772    -0.11400
C290        C  0.77370181  0.37462296  0.35189061     0.23900
C291        C  0.75999516  0.33173655  0.33620478    -0.12000
C292        C  0.72360693  0.31175423  0.31351815     0.05300
C293        C  0.80554114  0.39110886  0.37983673     0.27700
C294        C  0.85437823  0.42980740  0.37783054    -0.12700
C295        C  0.88167401  0.44955662  0.40545959     0.05800
C296        C  0.86131689  0.42963255  0.43523599    -0.08700
C297        C  0.81123405  0.39366837  0.43698330     0.06700
C298        C  0.78432632  0.37289855  0.40953582    -0.13000
Br299      Br  0.78938695  0.29877833  0.34675626    -0.05100
Br300      Br  0.67724032  0.40481339  0.31777353     0.00500
Br301      Br  0.94455617  0.50890983  0.40336613     0.01000
Br302      Br  0.71648069  0.32249367  0.41253094    -0.03400
Br303      Br  0.70976686  0.25582603  0.29031803     0.01100
Br304      Br  0.77058490  0.45732063  0.36510379    -0.02700
Br305      Br  0.88271727  0.45782847  0.33744595    -0.03600
Br306      Br  0.76436318  0.36120558  0.96876136     0.00400
C307        C  0.85383298  0.40797823  0.03910609     0.01800
C308        C  0.86520586  0.43976674  0.06465000     0.04600
C309        C  0.83588879  0.42380035  0.09153012    -0.11400
C310        C  0.79715877  0.37507961  0.09448320     0.23900
C311        C  0.78989392  0.34156722  0.07152688    -0.12000
C312        C  0.81752022  0.35771067  0.04359178     0.05300
C313        C  0.76252294  0.35999694  0.12082559     0.27700
C314        C  0.77461240  0.35456022  0.15127570    -0.12700
C315        C  0.74316752  0.34372753  0.17657954     0.05800
C316        C  0.69780993  0.33519646  0.17128692    -0.08700
C317        C  0.68557470  0.34002398  0.14045638     0.06700
C318        C  0.71845299  0.35372953  0.11556725    -0.13000
Br319      Br  0.74011637  0.27365961  0.07814382    -0.05100
Br320      Br  0.91979038  0.50658669  0.06280513     0.00500
Br321      Br  0.76436393  0.34361214  0.21855883     0.01000
Br322      Br  0.70353251  0.36462460  0.07407050    -0.03400
Br323      Br  0.81862131  0.33369149  0.51897937     0.01100
Br324      Br  0.84615042  0.46980725  0.12319208    -0.02700
Br325      Br  0.83468038  0.36226011  0.15813633    -0.03600
Br326      Br  0.62286963  0.32492789  0.13124570     0.00400
N327        N  0.88138925  0.41234282  0.98168836    -0.03000
C328        C  0.87628053  0.43363819  0.95592051    -0.02000
C329        C  0.87095252  0.46953132  0.96550369    -0.23300
C330        C  0.87928345  0.48996479  0.50553076    -0.23500
C331        C  0.88529175  0.45448813  0.51534122    -0.00500
H332        H  0.86116409  0.48883214  0.95076712     0.13300
H333        H  0.86697872  0.50757851  0.51964432     0.13300
N334        N  0.43229938  0.94556785  0.98954261    -0.03000
C335        C  0.41878067  0.96551275  0.96726200    -0.00400
C336        C  0.40171971  0.98957514  0.98162261    -0.23300
C337        C  0.40569551  0.98634650  0.01303587    -0.23500
C338        C  0.35953066  0.93211801  0.51119482    -0.00500
H339        H  0.39111625  0.01085226  0.97020983     0.13300
H340        H  0.31612711  0.96105550  0.51763535     0.13300
N341        N  0.38862757  0.38350879  0.98848737    -0.03000
C342        C  0.36773468  0.36058590  0.51261923    -0.00400
C343        C  0.33265865  0.31266799  0.50590373    -0.23300
C344        C  0.33440898  0.30471663  0.97844401    -0.23500
C345        C  0.36799933  0.34936194  0.96512070    -0.00500
H346        H  0.31626679  0.28258660  0.52232872     0.13300
H347        H  0.31610993  0.27019547  0.96663509     0.13300
O348        O  0.61580939  0.25326304  0.77330555    -0.84900
O349        O  0.53703611  0.16474592  0.75546400    -0.81900
C350        C  0.50329385  0.15731885  0.77296036     0.98600
O351        O  0.48544652  0.18105660  0.76925999    -0.82000
O352        O  0.48367260  0.26015273  0.75729444    -0.84600
C353        C  0.51136684  0.29026990  0.77786555     1.03100
O354        O  0.55588580  0.31009503  0.77578551    -0.77400
O355        O  0.64309187  0.32685506  0.75862169    -0.77600
C356        C  0.64532790  0.29824551  0.77655330     1.03000
O357        O  0.64340039  0.27920979  0.70804285    -0.84900
O358        O  0.56110236  0.19326629  0.69099846    -0.82000
C359        C  0.51694346  0.16349831  0.68639279     0.98600
O360        O  0.48650866  0.16422981  0.70321172    -0.82000
O361        O  0.49386736  0.24918426  0.69114397    -0.84600
C362        C  0.50792186  0.29288400  0.69153605     1.03100
O363        O  0.53815776  0.32071811  0.71181571    -0.77400
O364        O  0.62074723  0.32640435  0.69460353    -0.77600
C365        C  0.64854440  0.31308043  0.69116542     1.03000
Cr366      Cr  0.58696575  0.22488229  0.73198949     1.93700
Cr367      Cr  0.49216367  0.21632104  0.73023614     1.93200
Cr368      Cr  0.58686883  0.31598479  0.73495087     1.39100
O369        O  0.55530867  0.25217665  0.73208996    -1.22600
N370        N  0.90836205  0.39156779  0.98253048    -0.03000
C371        C  0.91397700  0.36891707  0.95793742    -0.00400
C372        C  0.91708721  0.33235681  0.96954329    -0.23300
C373        C  0.93942008  0.36605536  0.51060218    -0.23500
C374        C  0.93407857  0.40291541  0.51742103    -0.00500
H375        H  0.92677045  0.31182565  0.95614492     0.13300
H376        H  0.95279018  0.35087105  0.52610960     0.13300
N377        N  0.44619171  0.91292045  0.98487437    -0.03000
C378        C  0.40504817  0.87402853  0.50831636    -0.00400
C379        C  0.42267131  0.84855569  0.49721125    -0.23300
C380        C  0.48842475  0.88944932  0.96091947    -0.23500
C381        C  0.45711860  0.90278732  0.95653836    -0.00500
H382        H  0.43416521  0.82999965  0.51115426     0.13300
H383        H  0.49925073  0.87408044  0.94348767     0.13300
N384        N  0.40769881  0.43396819  0.98558180    -0.03000
C385        C  0.42392552  0.45997475  0.95839699    -0.00400
C386        C  0.45773539  0.50831583  0.96520951    -0.23300
C387        C  0.45995937  0.51276527  0.99712580    -0.23500
C388        C  0.42657771  0.46738030  0.00942635    -0.00500
H389        H  0.47323588  0.53850147  0.94890944     0.13300
H390        H  0.47575762  0.54950209  0.50653740     0.13300
O391        O  0.27773902  0.67384991  0.71669177    -0.84900
O392        O  0.19407384  0.59035482  0.69786765    -0.81900
C393        C  0.16423060  0.54595342  0.69268017     0.98600
O394        O  0.16359636  0.51433395  0.70940981    -0.82000
O395        O  0.24720943  0.52224639  0.69633754    -0.84600
C396        C  0.29092252  0.53840539  0.69532057     1.03100
O397        O  0.31871904  0.56729175  0.71623709    -0.77400
O398        O  0.32337144  0.65027769  0.70199179    -0.77600
C399        C  0.31037480  0.67850028  0.69906279     1.03000
O400        O  0.25013376  0.64247569  0.78109024    -0.84900
O401        O  0.16270255  0.56185443  0.76191006    -0.82000
C402        C  0.15451872  0.52654457  0.77868231     0.98600
O403        O  0.18027324  0.51095830  0.77541629    -0.82000
O404        O  0.25811094  0.50925878  0.76208129    -0.84600
C405        C  0.28910454  0.53653680  0.78230651     1.03100
O406        O  0.30877821  0.58164723  0.78123773    -0.77400
O407        O  0.32337299  0.66975114  0.76695754    -0.77600
C408        C  0.29461526  0.67157627  0.78477163     1.03000
Cr409      Cr  0.22330875  0.61467861  0.73945357     1.93700
Cr410      Cr  0.21500620  0.51905521  0.73597732     1.93200
Cr411      Cr  0.31360239  0.61472466  0.74146635     1.39100
O412        O  0.25054039  0.58283491  0.73893278    -1.22600
C413        C  0.39704700  0.44774858  0.92831613     0.01800
C414        C  0.34740680  0.42853500  0.92783850     0.04600
C415        C  0.32767966  0.43561990  0.90114190    -0.11400
C416        C  0.35719612  0.46335566  0.87552261     0.23900
C417        C  0.40510865  0.47802959  0.87465697    -0.12000
C418        C  0.42423628  0.46845272  0.90045026     0.05300
C419        C  0.33897245  0.48109643  0.85140243     0.27700
C420        C  0.32798159  0.46183613  0.82089169    -0.12700
C421        C  0.31329927  0.48097757  0.79796045     0.05800
C422        C  0.30428816  0.51582067  0.80633343    -0.08700
C423        C  0.31124397  0.53175939  0.83771826     0.06700
C424        C  0.33139313  0.51688104  0.85952821    -0.13000
Br425      Br  0.44616837  0.51595202  0.83974145    -0.05100
Br426      Br  0.30435283  0.39134096  0.96236173     0.00500
Br427      Br  0.30862101  0.46109389  0.75488198     0.01000
Br428      Br  0.34906657  0.54597564  0.90062209    -0.03400
Br429      Br  0.48936388  0.48708611  0.89875730     0.01100
Br430      Br  0.26019845  0.40925531  0.89988746    -0.02700
Br431      Br  0.33155767  0.40822031  0.81075532    -0.03600
Br432      Br  0.28826082  0.56941981  0.85208772     0.00400
C433        C  0.30938367  0.52264734  0.66997256     0.01800
C434        C  0.35434267  0.55612373  0.65544954     0.04600
C435        C  0.36938909  0.54193969  0.62955958    -0.11400
C436        C  0.34082762  0.49388919  0.61864382     0.23900
C437        C  0.29699712  0.46003097  0.63373733    -0.12000
C438        C  0.28147461  0.47408298  0.65945355     0.05300
C439        C  0.35687495  0.48013652  0.59064493     0.27700
C440        C  0.34043369  0.48158125  0.56075455    -0.12700
C441        C  0.36229852  0.47840834  0.53358302     0.05800
C442        C  0.39849720  0.46971806  0.53592590    -0.08700
C443        C  0.41804619  0.47387177  0.56596573     0.06700
C444        C  0.39517898  0.47529869  0.59318432    -0.13000
Br445      Br  0.25761134  0.39451299  0.61867924    -0.05100
Br446      Br  0.39591339  0.62204351  0.66999744     0.00500
Br447      Br  0.35436240  0.49700323  0.99660077     0.01000
Br448      Br  0.41853301  0.47437285  0.63417889    -0.03400
Br449      Br  0.22339485  0.42524585  0.68137832     0.01100
Br450      Br  0.42852303  0.58915437  0.60792066    -0.02700
Br451      Br  0.29100420  0.49303938  0.55714703    -0.03600
Br452      Br  0.48211818  0.49067359  0.56996849     0.00400
C453        C  0.42583257  0.88459415  0.92817275     0.01800
C454        C  0.44776087  0.89252002  0.89827075     0.04600
C455        C  0.42127070  0.86271008  0.87291661    -0.11400
C456        C  0.37344338  0.82333500  0.87749309     0.23900
C457        C  0.34984970  0.81854330  0.90591161    -0.12000
C458        C  0.37534755  0.85036767  0.93087790     0.05300
C459        C  0.35107614  0.78337967  0.85440970     0.27700
C460        C  0.31685848  0.77756292  0.83297894    -0.12700
C461        C  0.29688428  0.73973317  0.81097431     0.05800
C462        C  0.31358216  0.70967045  0.80896766    -0.08700
C463        C  0.34999961  0.71768738  0.82937341     0.06700
C464        C  0.36643020  0.75236479  0.85314881    -0.13000
Br465      Br  0.28367001  0.76501816  0.91158989    -0.05100
Br466      Br  0.51532374  0.94143414  0.89217075     0.00500
Br467      Br  0.24958703  0.73214476  0.78202119     0.01000
Br468      Br  0.40997159  0.75724357  0.88440332    -0.03400
Br469      Br  0.33953774  0.84417058  0.96822654     0.01100
Br470      Br  0.45174074  0.87210850  0.83256675    -0.02700
Br471      Br  0.29884545  0.82256945  0.83321434    -0.03600
Br472      Br  0.37962272  0.68330037  0.82447105     0.00400
C473        C  0.33389701  0.71783689  0.67512267     0.01800
C474        C  0.35097779  0.76587214  0.68322314     0.04600
C475        C  0.36712571  0.80166777  0.65965819    -0.11400
C476        C  0.37027952  0.79077091  0.62825652     0.23900
C477        C  0.35832958  0.74419894  0.62077529    -0.12000
C478        C  0.33825721  0.70733655  0.64376430     0.05300
C479        C  0.37826494  0.82431493  0.60213297     0.27700
C480        C  0.33909015  0.81140247  0.58318704    -0.12700
C481        C  0.34683611  0.83086728  0.55276237     0.05800
C482        C  0.39321380  0.86879894  0.54246279    -0.08700
C483        C  0.43149499  0.88703351  0.56381224     0.06700
C484        C  0.42453346  0.86333791  0.59288869    -0.13000
Br485      Br  0.36658408  0.73009901  0.57826478    -0.05100
Br486      Br  0.35426271  0.78339079  0.72665923     0.00500
Br487      Br  0.29446916  0.79820468  0.52438605     0.01000
Br488      Br  0.47881493  0.87992912  0.61792942    -0.03400
Br489      Br  0.31205323  0.64156638  0.63121828     0.01100
Br490      Br  0.38191167  0.86449760  0.67007855    -0.02700
Br491      Br  0.27486591  0.76181892  0.59764305    -0.03600
Br492      Br  0.49494141  0.93977580  0.55085533     0.00400
C493        C  0.12824022  0.53054441  0.66770267     0.01800
C494        C  0.12587221  0.50191491  0.64269309     0.04600
C495        C  0.09028824  0.48537426  0.61976144    -0.11400
C496        C  0.05640689  0.49676462  0.62187631     0.23900
C497        C  0.05895026  0.52584758  0.64654371    -0.12000
C498        C  0.09525273  0.54337456  0.66916792     0.05300
C499        C  0.01798476  0.47721615  0.59810407     0.27700
C500        C  0.02474825  0.50406890  0.57078863    -0.12700
C501        C  0.99288461  0.48206868  0.54546805     0.05800
C502        C  0.95549361  0.43176258  0.54679192    -0.08700
C503        C  0.94636128  0.40663072  0.57572827     0.06700
C504        C  0.97706617  0.42965502  0.60133162    -0.13000
Br505      Br  0.01178969  0.54038206  0.64952419    -0.05100
Br506      Br  0.17267836  0.48710402  0.63884453     0.00500
Br507      Br  0.98801148  0.49485881  0.00385700     0.01000
Br508      Br  0.96536204  0.39513348  0.64041469    -0.03400
Br509      Br  0.09867639  0.58374945  0.70261903     0.01100
Br510      Br  0.08774766  0.44693248  0.58521411    -0.02700
Br511      Br  0.07996307  0.57034160  0.56754186    -0.03600
Br512      Br  0.89354273  0.33942893  0.58043430     0.00400
C513        C  0.11383758  0.50249759  0.80180446     0.01800
C514        C  0.10234983  0.53016353  0.81949487     0.04600
C515        C  0.06417110  0.50738554  0.84139819    -0.11400
C516        C  0.03928032  0.45728146  0.84791642     0.23900
C517        C  0.05147436  0.42976323  0.83090065    -0.12000
C518        C  0.08689714  0.45168898  0.80706253     0.05300
C519        C  0.00597410  0.43550221  0.87569546     0.27700
C520        C  0.02546849  0.44703034  0.90604666    -0.12700
C521        C  0.99555836  0.42627154  0.93271850     0.05800
C522        C  0.94494221  0.39491429  0.92963891    -0.08700
C523        C  0.92643432  0.37882459  0.89923174     0.06700
C524        C  0.95623604  0.40036131  0.87234813    -0.13000
Br525      Br  0.02250613  0.36263243  0.84195882    -0.05100
Br526      Br  0.14176668  0.60009473  0.81670717     0.00500
Br527      Br  0.02625907  0.43252209  0.97213985     0.01000
Br528      Br  0.92916933  0.38022585  0.83105973    -0.03400
Br529      Br  0.09682685  0.41083616  0.78131535     0.01100
Br530      Br  0.04817855  0.54593630  0.86404943    -0.02700
Br531      Br  0.09434171  0.48785544  0.91095080    -0.03600
Br532      Br  0.86206247  0.32214999  0.89489295     0.00400
C533        C  0.39553812  0.37216855  0.54220154     0.01800
C534        C  0.37050830  0.35747151  0.57115871     0.04600
C535        C  0.39155876  0.35316096  0.59813601    -0.11400
C536        C  0.43573978  0.35864347  0.59568020     0.23900
C537        C  0.46211075  0.37605699  0.56737521    -0.12000
C538        C  0.44364728  0.38631284  0.54147556     0.05300
C539        C  0.45276312  0.34293398  0.62195274     0.27700
C540        C  0.49334393  0.37695571  0.63941453    -0.12700
C541        C  0.51266215  0.36121767  0.66141296     0.05800
C542        C  0.48789387  0.31108287  0.66895686    -0.08700
C543        C  0.44317188  0.27810769  0.65450376     0.06700
C544        C  0.42828811  0.29331332  0.62925225    -0.13000
Br545      Br  0.52240857  0.38313790  0.56325530    -0.05100
Br546      Br  0.30678395  0.34236671  0.57362144     0.00500
Br547      Br  0.57361938  0.40967011  0.67984260     0.01000
Br548      Br  0.37513675  0.24555425  0.60388451    -0.03400
Br549      Br  0.49304682  0.42376648  0.00731410     0.01100
Br550      Br  0.35900368  0.33742415  0.63820335    -0.02700
Br551      Br  0.52216483  0.44526697  0.63331978    -0.03600
Br552      Br  0.39802431  0.21386499  0.67151478     0.00400
C553        C  0.49165674  0.30354549  0.80385780     0.01800
C554        C  0.51400470  0.35274179  0.81197692     0.04600
C555        C  0.49645084  0.36522294  0.83737523    -0.11400
C556        C  0.45710938  0.32887632  0.85522186     0.23900
C557        C  0.43423578  0.27989884  0.84688962    -0.12000
C558        C  0.45051141  0.26730001  0.82084441     0.05300
C559        C  0.43875465  0.34133295  0.88260282     0.27700
C560        C  0.45542637  0.34202977  0.91280536    -0.12700
C561        C  0.43088819  0.34232089  0.93941807     0.05800
C562        C  0.39372982  0.34942183  0.93630407    -0.08700
C563        C  0.37421410  0.34349274  0.90597457     0.06700
C564        C  0.39807188  0.34205959  0.87925366    -0.13000
Br565      Br  0.38058985  0.22981349  0.87162967    -0.05100
Br566      Br  0.56648239  0.40381118  0.78702206     0.00500
Br567      Br  0.43292399  0.31849128  0.47513486     0.01000
Br568      Br  0.37294900  0.33666162  0.83785304    -0.03400
Br569      Br  0.41566536  0.20002145  0.80902820     0.01100
Br570      Br  0.52581532  0.43220167  0.84745177    -0.02700
Br571      Br  0.50913901  0.33745987  0.91766824    -0.03600
Br572      Br  0.30915767  0.32357579  0.90109368     0.00400
C573        C  0.48484840  0.12045875  0.79808973     0.01800
C574        C  0.48684136  0.13405035  0.82958519     0.04600
C575        C  0.47076275  0.09926850  0.85364125    -0.11400
C576        C  0.45654345  0.05177959  0.84657996     0.23900
C577        C  0.45478322  0.03825147  0.81513481    -0.12000
C578        C  0.46699824  0.07203796  0.79087890     0.05300
C579        C  0.44663990  0.01791270  0.87274719     0.27700
C580        C  0.48488438  0.02701090  0.89122660    -0.12700
C581        C  0.47612696  0.00658260  0.92146474     0.05800
C582        C  0.42873534  0.97355565  0.93271048    -0.08700
C583        C  0.39035628  0.96085542  0.91226791     0.06700
C584        C  0.39940808  0.98273618  0.88241321    -0.13000
Br585      Br  0.43734675  0.97414106  0.80542450    -0.05100
Br586      Br  0.51544133  0.20105904  0.84015454     0.00500
Br587      Br  0.52999974  0.03147956  0.94815805     0.01000
Br588      Br  0.34697828  0.96813002  0.85586774    -0.03400
Br589      Br  0.45683699  0.05129329  0.74785291     0.01100
Br590      Br  0.46908971  0.11698951  0.89648164    -0.02700
Br591      Br  0.54975684  0.07157699  0.87578138    -0.03600
Br592      Br  0.32468028  0.91965918  0.92642354     0.00400
C593        C  0.38884146  0.95639526  0.53970258     0.01800
C594        C  0.43320827  0.00213750  0.53669869     0.04600
C595        C  0.46046513  0.02633199  0.56328642    -0.11400
C596        C  0.43887769  0.01234215  0.59313283     0.23900
C597        C  0.39245297  0.96965885  0.59649489    -0.12000
C598        C  0.36751657  0.94163693  0.56994217     0.05300
C599        C  0.45859898  0.04984846  0.61792341     0.27700
C600        C  0.48884215  0.05237429  0.64142289    -0.12700
C601        C  0.51029495  0.09108742  0.66290536     0.05800
C602        C  0.49987532  0.12624920  0.66166888    -0.08700
C603        C  0.47050395  0.12402930  0.63760098     0.06700
C604        C  0.44956480  0.08583968  0.61606998    -0.13000
Br605      Br  0.36113693  0.95325577  0.63695295    -0.05100
Br606      Br  0.54217179  0.01819408  0.02164181     0.00500
Br607      Br  0.55449535  0.09615908  0.69348521     0.01000
Br608      Br  0.40836729  0.08291183  0.58367747    -0.03400
Br609      Br  0.30060004  0.88970753  0.57435575     0.01100
Br610      Br  0.52451875  0.08432047  0.55846175    -0.02700
Br611      Br  0.49991254  0.00230518  0.64426675    -0.03600
Br612      Br  0.46248034  0.17578710  0.63209046     0.00400
C613        C  0.68411275  0.31777841  0.80027954     0.01800
C614        C  0.69972035  0.36109246  0.81654178     0.04600
C615        C  0.73655230  0.37950246  0.83879072    -0.11400
C616        C  0.75763628  0.35461470  0.84557461     0.23900
C617        C  0.74284632  0.31200693  0.82916349    -0.12000
C618        C  0.70677508  0.29392166  0.80635213     0.05300
C619        C  0.79029854  0.37003930  0.87290342     0.27700
C620        C  0.83911060  0.40843167  0.87020704    -0.12700
C621        C  0.86776788  0.42739096  0.89731604     0.05800
C622        C  0.84841641  0.40727465  0.92729686    -0.08700
C623        C  0.79822305  0.37194186  0.92979808     0.06700
C624        C  0.77012541  0.35170502  0.90278197    -0.13000
Br625      Br  0.77104521  0.27744508  0.83858564    -0.05100
Br626      Br  0.66895248  0.39421017  0.81058741     0.00500
Br627      Br  0.93132894  0.48580842  0.89410685     0.01000
Br628      Br  0.70202131  0.30269443  0.90676383    -0.03400
Br629      Br  0.69041207  0.23726933  0.78291381     0.01100
Br630      Br  0.75685142  0.43795135  0.86140745    -0.02700
Br631      Br  0.86528419  0.43755211  0.82963389    -0.03600
Br632      Br  0.77592811  0.38214689  0.47537252     0.00400
C633        C  0.86559502  0.43081122  0.54688050     0.01800
C634        C  0.87448657  0.46120484  0.57283741     0.04600
C635        C  0.84206085  0.44409920  0.59825557    -0.11400
C636        C  0.80259826  0.39545396  0.59932111     0.23900
C637        C  0.79811909  0.36310782  0.57641374    -0.12000
C638        C  0.82895833  0.38046003  0.54999188     0.05300
C639        C  0.76463832  0.37831321  0.62372759     0.27700
C640        C  0.77113502  0.36654190  0.65406026    -0.12700
C641        C  0.73413321  0.34796526  0.67656577     0.05800
C642        C  0.68905715  0.33811959  0.66830343    -0.08700
C643        C  0.68303879  0.35101806  0.63795527     0.06700
C644        C  0.72119293  0.37215117  0.61608047    -0.13000
Br645      Br  0.74793713  0.29492063  0.58104222    -0.05100
Br646      Br  0.93034552  0.52728746  0.57338686     0.00500
Br647      Br  0.74707952  0.33895496  0.71915470     0.01000
Br648      Br  0.71413627  0.39255081  0.57531814    -0.03400
Br649      Br  0.80302919  0.30953023  0.01245922     0.01100
Br650      Br  0.84958600  0.48811046  0.63050657    -0.02700
Br651      Br  0.83065448  0.37501560  0.66446958    -0.03600
Br652      Br  0.62201600  0.33723042  0.62518369     0.00400
loop_ 
_geom_bond_atom_site_label_1 
_geom_bond_atom_site_label_2 
_geom_bond_distance 
_geom_bond_site_symmetry_2 
_ccdc_geom_bond_type 
N1            C2   1.373       .  A
N1          C331   1.370       .  A
N1           N44   1.436       .  S
C2            C3   1.381       .  A
C2          C296   1.496       .  S
C3          C330   1.363       .  A
C3            H6   1.083       .  S
C4            C5   1.383   1_556  A
C4          C329   1.362       .  A
C4            H7   1.082   1_556  S
C5          N327   1.370   1_554  A
C5          C307   1.502       .  S
N8            C9   1.370       .  A
N8          C338   1.373       .  A
N8           N51   1.437       .  S
C9           C10   1.385       .  A
C9          C256   1.504       .  S
C10          C11   1.363       .  A
C10          H13   1.081       .  S
C11         C338   1.380       .  A
C11         H340   1.083       .  S
C12         N334   1.372   1_554  A
C12         C337   1.381       .  A
C12         C267   1.487       .  S
H14         C337   1.084   1_545  S
N15          C19   1.379       .  A
N15         C342   1.358       .  A
N15          N58   1.434       .  S
C16         N341   1.357   1_554  A
C16          C17   1.384       .  A
C16         C207   1.494       .  S
C17         C344   1.371   1_554  A
C17          H20   1.082       .  S
C18          C19   1.382       .  A
C18         C343   1.371       .  A
C18          H21   1.082       .  S
C19         C236   1.507       .  S
O22         Cr40   1.983       .  S
O22          C30   1.259       .  A
O23         Cr40   2.006       .  S
O23          C24   1.264       .  A
C24         C247   1.472       .  S
C24          O25   1.259       .  A
O25         Cr41   1.972       .  S
O26         Cr41   2.019       .  S
O26          C27   1.269       .  A
C27         C227   1.492       .  S
C27          O28   1.267       .  A
O28         Cr42   1.989       .  S
O29         Cr42   2.012       .  S
O29          C30   1.263       .  A
C30         C287   1.492       .  S
O31         Cr40   2.001       .  S
O31          C39   1.267       .  A
O32         Cr40   1.972       .  S
O32          C33   1.257       .  A
C33         C276   1.477       .  S
C33          O34   1.265       .  A
O34         Cr41   2.009       .  S
O35         Cr41   1.982       .  S
O35          C36   1.259       .  A
C36         C216   1.498       .  S
C36          O37   1.263       .  A
O37         Cr42   2.015       .  S
O38         Cr42   1.985       .  S
O38          C39   1.266       .  A
C39         C316   1.488       .  S
Cr40         O43   1.772       .  S
Cr41         O43   1.767       .  S
Cr42         O43   1.773       .  S
N44          C45   1.372       .  A
N44         C374   1.368       .  A
C45          C46   1.382       .  A
C45         C196   1.498       .  S
C46         C373   1.365       .  A
C46          H49   1.082       .  S
C47          C48   1.384       .  A
C47         C372   1.368   1_554  A
C47          H50   1.081       .  S
C48         N370   1.369   1_554  A
C48         C176   1.506       .  S
N51          C55   1.380       .  A
N51         C378   1.378       .  A
C52         N377   1.376   1_554  A
C52          C53   1.381   1_554  A
C52         C156   1.500       .  S
C53         C380   1.367       .  A
C53          H56   1.082   1_556  S
C54          C55   1.380       .  A
C54         C379   1.357       .  A
C54          H57   1.083       .  S
C55         C127   1.494       .  S
N58          C62   1.378       .  A
N58          C59   1.357       .  A
C59          C60   1.386       .  A
C59          C87   1.496       .  S
C60          C61   1.367       .  A
C60          H63   1.082       .  S
C61          C62   1.380       .  A
C61         H390   1.082       .  S
C62         C442   1.502       .  S
H64         C387   1.082   1_554  S
O65         Cr83   2.020       .  S
O65          C73   1.271       .  A
O66         Cr83   1.975       .  S
O66          C67   1.257       .  A
C67         C167   1.479       .  S
C67          O68   1.264       .  A
O68         Cr84   2.011       .  S
O69         Cr84   1.986       .  S
O69          C70   1.264       .  A
C70         C107   1.490       .  S
C70          O71   1.264       .  A
O71         Cr85   2.007       .  S
O72         Cr85   1.975       .  S
O72          C73   1.262       .  A
C73         C147   1.489       .  S
O74         Cr83   1.979       .  S
O74          C82   1.258       .  A
O75         Cr83   2.023       .  S
O75          C76   1.270       .  A
C76         C187   1.498       .  S
C76          O77   1.259       .  A
O77         Cr84   1.971       .  S
O78         Cr84   2.002       .  S
O78          C79   1.264       .  A
C79          C96   1.486       .  S
C79          O80   1.264       .  A
O80         Cr85   1.988       .  S
O81         Cr85   2.006       .  S
O81          C82   1.263       .  A
C82         C136   1.483       .  S
Cr83         O86   1.773       .  S
Cr84         O86   1.767       .  S
Cr85         O86   1.771       .  S
C87          C88   1.425       .  A
C87          C92   1.412       .  A
C88          C89   1.412       .  A
C88        Br100   1.936       .  S
C89          C90   1.408       .  A
C89        Br104   1.934       .  S
C90          C91   1.408       .  A
C90          C93   1.489       .  S
C91          C92   1.405       .  A
C91         Br99   1.931       .  S
C92        Br103   1.929       .  S
C93          C94   1.408       .  A
C93          C98   1.411       .  A
C94          C95   1.408       .  A
C94        Br105   1.929       .  S
C95          C96   1.418       .  A
C95        Br101   1.933       .  S
C96          C97   1.412       .  A
C97          C98   1.408       .  A
C97        Br106   1.930       .  S
C98        Br102   1.931       .  S
C107        C108   1.420       .  A
C107        C112   1.416       .  A
C108        C109   1.407       .  A
C108       Br120   1.936       .  S
C109        C110   1.409       .  A
C109       Br124   1.935       .  S
C110        C111   1.409       .  A
C110        C113   1.491       .  S
C111        C112   1.410       .  A
C111       Br119   1.925       .  S
C112       Br123   1.934       .  S
C113        C114   1.406       .  A
C113        C118   1.409       .  A
C114        C115   1.410       .  A
C114       Br125   1.935       .  S
C115        C116   1.421       .  A
C115       Br447   1.930   1_554  S
C116        C117   1.415       .  A
C116        C388   1.501       .  S
C117        C118   1.411       .  A
C117       Br126   1.926       .  S
C118       Br122   1.930       .  S
Br121       C441   1.931       .  S
C127        C128   1.423       .  A
C127        C132   1.416       .  A
C128        C129   1.405       .  A
C128       Br140   1.931       .  S
C129        C130   1.404       .  A
C129       Br144   1.933       .  S
C130        C131   1.406       .  A
C130        C133   1.484       .  S
C131        C132   1.407       .  A
C131       Br139   1.935       .  S
C132       Br143   1.914       .  S
C133        C134   1.407       .  A
C133        C138   1.411       .  A
C134        C135   1.409       .  A
C134       Br145   1.931       .  S
C135        C136   1.417       .  A
C135       Br141   1.930       .  S
C136        C137   1.413       .  A
C137        C138   1.403       .  A
C137       Br146   1.930       .  S
C138       Br142   1.937       .  S
C147        C148   1.414       .  A
C147        C152   1.414       .  A
C148        C149   1.409       .  A
C148       Br160   1.927       .  S
C149        C150   1.409       .  A
C149       Br164   1.926       .  S
C150        C151   1.414       .  A
C150        C153   1.495       .  S
C151        C152   1.408       .  A
C151       Br159   1.934       .  S
C152       Br163   1.932       .  S
C153        C154   1.407       .  A
C153        C158   1.414       .  A
C154        C155   1.400       .  A
C154       Br165   1.931       .  S
C155        C156   1.413       .  A
C155       Br161   1.931   1_554  S
C156        C157   1.418       .  A
C157        C158   1.416       .  A
C157       Br166   1.927       .  S
C158       Br162   1.931       .  S
C167        C168   1.408       .  A
C167        C172   1.414       .  A
C168        C169   1.406       .  A
C168       Br180   1.928       .  S
C169        C170   1.410       .  A
C169       Br184   1.931       .  S
C170        C171   1.409       .  A
C170        C173   1.486   1_455  S
C171        C172   1.411       .  A
C171       Br179   1.929   1_455  S
C172       Br183   1.930       .  S
C173        C174   1.405   1_655  A
C173        C178   1.403       .  A
C174        C175   1.411   1_455  A
C174       Br185   1.933       .  S
C175        C176   1.425       .  A
C175       Br507   1.936       .  S
C176        C177   1.424       .  A
C177        C178   1.408       .  A
C177       Br186   1.933       .  S
C178       Br182   1.932       .  S
Br181       C501   1.933   1_455  S
C187        C188   1.418       .  A
C187        C192   1.423       .  A
C188        C189   1.409       .  A
C188       Br200   1.936       .  S
C189        C190   1.410       .  A
C189       Br204   1.924       .  S
C190        C191   1.409       .  A
C190        C193   1.497       .  S
C191        C192   1.411       .  A
C191       Br199   1.934       .  S
C192       Br203   1.936       .  S
C193        C194   1.407       .  A
C193        C198   1.413   1_455  A
C194        C195   1.409       .  A
C194       Br205   1.937       .  S
C195        C196   1.423   1_455  A
C195       Br201   1.930       .  S
C196        C197   1.411       .  A
C197        C198   1.415       .  A
C197       Br206   1.925       .  S
C198       Br202   1.928       .  S
C207        C208   1.412       .  A
C207        C212   1.420       .  A
C208        C209   1.407       .  A
C208       Br220   1.926       .  S
C209        C210   1.411       .  A
C209       Br224   1.931       .  S
C210        C211   1.410       .  A
C210        C213   1.492       .  S
C211        C212   1.409       .  A
C211       Br219   1.933       .  S
C212       Br549   1.935       .  S
C213        C214   1.409       .  A
C213        C218   1.409       .  A
C214        C215   1.411       .  A
C214       Br225   1.932       .  S
C215        C216   1.422       .  A
C215       Br221   1.934       .  S
C216        C217   1.420       .  A
C217        C218   1.407       .  A
C217       Br226   1.934       .  S
C218       Br222   1.934       .  S
Br223       C538   1.936       .  S
C227        C228   1.415       .  A
C227        C232   1.417       .  A
C228        C229   1.412       .  A
C228       Br240   1.932       .  S
C229        C230   1.409       .  A
C229       Br244   1.923       .  S
C230        C231   1.411       .  A
C230        C233   1.496       .  S
C231        C232   1.410       .  A
C231       Br239   1.933       .  S
C232       Br243   1.931       .  S
C233        C234   1.405       .  A
C233        C238   1.409       .  A
C234        C235   1.409       .  A
C234       Br245   1.932       .  S
C235        C236   1.421       .  A
C235       Br567   1.930       .  S
C236        C237   1.419       .  A
C237        C238   1.416       .  A
C237       Br246   1.926       .  S
C238       Br242   1.929       .  S
Br241       C561   1.931       .  S
C247        C248   1.408       .  A
C247        C252   1.411       .  A
C248        C249   1.405       .  A
C248       Br260   1.932       .  S
C249        C250   1.411       .  A
C249       Br264   1.930       .  S
C250        C251   1.408       .  A
C250        C253   1.483       .  S
C251        C252   1.405       .  A
C251       Br259   1.930   1_545  S
C252       Br263   1.925       .  S
C253        C254   1.406       .  A
C253        C258   1.403   1_545  A
C254        C255   1.411   1_545  A
C254       Br265   1.933       .  S
C255        C256   1.425       .  A
C255       Br261   1.934       .  S
C256        C257   1.423       .  A
C257        C258   1.404       .  A
C257       Br266   1.933       .  S
C258       Br262   1.935       .  S
C267        C268   1.415   1_565  A
C267        C272   1.415       .  A
C268        C269   1.404       .  A
C268       Br606   1.909       .  S
C269        C270   1.403       .  A
C269       Br284   1.936       .  S
C270        C271   1.406   1_545  A
C270        C273   1.482       .  S
C271        C272   1.410       .  A
C271       Br279   1.927       .  S
C272       Br283   1.928       .  S
C273        C274   1.407       .  A
C273        C278   1.410       .  A
C274        C275   1.408       .  A
C274       Br285   1.930       .  S
C275        C276   1.414       .  A
C275       Br281   1.930       .  S
C276        C277   1.408       .  A
C277        C278   1.404       .  A
C277       Br286   1.926       .  S
C278       Br282   1.933       .  S
Br280       C594   1.928       .  S
C287        C288   1.416       .  A
C287        C292   1.417       .  A
C288        C289   1.411       .  A
C288       Br300   1.932       .  S
C289        C290   1.410       .  A
C289       Br304   1.932       .  S
C290        C291   1.409       .  A
C290        C293   1.494       .  S
C291        C292   1.410       .  A
C291       Br299   1.923       .  S
C292       Br303   1.935       .  S
C293        C294   1.411       .  A
C293        C298   1.406       .  A
C294        C295   1.415       .  A
C294       Br305   1.927       .  S
C295        C296   1.412       .  A
C295       Br301   1.921       .  S
C296        C297   1.420       .  A
C297        C298   1.408       .  A
C297       Br632   1.927       .  S
C298       Br302   1.936       .  S
Br306       C623   1.927       .  S
C307        C308   1.420       .  A
C307        C312   1.425       .  A
C308        C309   1.402       .  A
C308       Br320   1.933       .  S
C309        C310   1.403       .  A
C309       Br324   1.934       .  S
C310        C311   1.407       .  A
C310        C313   1.485       .  S
C311        C312   1.413       .  A
C311       Br319   1.933       .  S
C312       Br649   1.933       .  S
C313        C314   1.406       .  A
C313        C318   1.409       .  A
C314        C315   1.407       .  A
C314       Br325   1.932       .  S
C315        C316   1.419       .  A
C315       Br321   1.933       .  S
C316        C317   1.417       .  A
C317        C318   1.408       .  A
C317       Br326   1.933       .  S
C318       Br322   1.933       .  S
Br323       C638   1.932       .  S
N327        C328   1.374       .  A
N327        N370   1.436       .  S
C328        C329   1.381       .  A
C328        C622   1.495       .  S
C329        H332   1.083       .  S
C330        C331   1.384       .  A
C330        H333   1.082       .  S
C331        C633   1.504       .  S
N334        C335   1.384       .  A
N334        N377   1.435       .  S
C335        C336   1.379       .  A
C335        C582   1.498       .  S
C336        C337   1.356   1_556  A
C336        H339   1.083   1_565  S
C338        C593   1.493       .  S
N341        C345   1.378       .  A
N341        N384   1.434       .  S
C342        C343   1.384       .  A
C342        C533   1.494       .  S
C343        H346   1.082       .  S
C344        C345   1.382       .  A
C344        H347   1.082       .  S
C345        C562   1.503       .  S
O348       Cr366   1.984       .  S
O348        C356   1.259       .  A
O349       Cr366   2.005       .  S
O349        C350   1.264       .  A
C350        C573   1.474       .  S
C350        O351   1.258       .  A
O351       Cr367   1.974       .  S
O352       Cr367   2.020       .  S
O352        C353   1.268       .  A
C353        C553   1.487       .  S
C353        O354   1.262       .  A
O354       Cr368   1.979       .  S
O355       Cr368   2.009       .  S
O355        C356   1.262       .  A
C356        C613   1.492       .  S
O357       Cr366   2.007       .  S
O357        C365   1.269       .  A
O358       Cr366   1.979       .  S
O358        C359   1.259       .  A
C359        C602   1.484       .  S
C359        O360   1.268       .  A
O360       Cr367   2.016       .  S
O361       Cr367   1.978       .  S
O361        C362   1.259       .  A
C362        C542   1.498       .  S
C362        O363   1.264       .  A
O363       Cr368   2.015       .  S
O364       Cr368   1.980       .  S
O364        C365   1.265       .  A
C365        C642   1.488       .  S
Cr366       O369   1.769       .  S
Cr367       O369   1.767       .  S
Cr368       O369   1.773       .  S
N370        C371   1.373       .  A
C371        C372   1.383       .  A
C371        C522   1.502       .  S
C372        H375   1.082       .  S
C373        C374   1.383       .  A
C373        H376   1.082       .  S
C374        C502   1.500       .  S
N377        C381   1.362       .  A
C378        C379   1.379       .  A
C378        C482   1.490       .  S
C379        H382   1.083       .  S
C380        C381   1.385       .  A
C380        H383   1.082       .  S
C381        C453   1.498       .  S
N384        C388   1.378   1_556  A
N384        C385   1.359       .  A
C385        C386   1.387       .  A
C385        C413   1.495       .  S
C386        C387   1.367       .  A
C386        H389   1.082       .  S
C387        C388   1.379   1_556  A
O391       Cr409   2.022       .  S
O391        C399   1.270       .  A
O392       Cr409   1.975       .  S
O392        C393   1.258       .  A
C393        C493   1.482       .  S
C393        O394   1.268       .  A
O394       Cr410   2.018       .  S
O395       Cr410   1.977       .  S
O395        C396   1.259       .  A
C396        C433   1.489       .  S
C396        O397   1.265       .  A
O397       Cr411   2.014       .  S
O398       Cr411   1.974       .  S
O398        C399   1.261       .  A
C399        C473   1.484       .  S
O400       Cr409   1.978       .  S
O400        C408   1.259       .  A
O401       Cr409   2.027       .  S
O401        C402   1.270       .  A
C402        C513   1.497       .  S
C402        O403   1.259       .  A
O403       Cr410   1.975       .  S
O404       Cr410   2.016       .  S
O404        C405   1.268       .  A
C405        C422   1.487       .  S
C405        O406   1.261       .  A
O406       Cr411   1.978       .  S
O407       Cr411   2.007       .  S
O407        C408   1.264       .  A
C408        C462   1.481       .  S
Cr409       O412   1.771       .  S
Cr410       O412   1.767       .  S
Cr411       O412   1.773       .  S
C413        C414   1.423       .  A
C413        C418   1.413       .  A
C414        C415   1.411       .  A
C414       Br426   1.936       .  S
C415        C416   1.408       .  A
C415       Br430   1.934       .  S
C416        C417   1.408       .  A
C416        C419   1.490       .  S
C417        C418   1.407       .  A
C417       Br425   1.929       .  S
C418       Br429   1.929       .  S
C419        C420   1.409       .  A
C419        C424   1.411       .  A
C420        C421   1.409       .  A
C420       Br431   1.925       .  S
C421        C422   1.416       .  A
C421       Br427   1.932       .  S
C422        C423   1.413       .  A
C423        C424   1.407       .  A
C423       Br432   1.929       .  S
C424       Br428   1.933       .  S
C433        C434   1.418       .  A
C433        C438   1.417       .  A
C434        C435   1.408       .  A
C434       Br446   1.934       .  S
C435        C436   1.410       .  A
C435       Br450   1.934       .  S
C436        C437   1.407       .  A
C436        C439   1.490       .  S
C437        C438   1.409       .  A
C437       Br445   1.926       .  S
C438       Br449   1.934       .  S
C439        C440   1.406       .  A
C439        C444   1.407       .  A
C440        C441   1.410       .  A
C440       Br451   1.935       .  S
C441        C442   1.423       .  A
C442        C443   1.416       .  A
C443        C444   1.409       .  A
C443       Br452   1.924       .  S
C444       Br448   1.931       .  S
C453        C454   1.418       .  A
C453        C458   1.424       .  A
C454        C455   1.404       .  A
C454       Br466   1.932       .  S
C455        C456   1.405       .  A
C455       Br470   1.932       .  S
C456        C457   1.406       .  A
C456        C459   1.484       .  S
C457        C458   1.410       .  A
C457       Br465   1.932       .  S
C458       Br469   1.936       .  S
C459        C460   1.407       .  A
C459        C464   1.409       .  A
C460        C461   1.410       .  A
C460       Br471   1.930       .  S
C461        C462   1.417       .  A
C461       Br467   1.932       .  S
C462        C463   1.413       .  A
C463        C464   1.403       .  A
C463       Br472   1.930       .  S
C464       Br468   1.934       .  S
C473        C474   1.414       .  A
C473        C478   1.412       .  A
C474        C475   1.410       .  A
C474       Br486   1.929       .  S
C475        C476   1.408       .  A
C475       Br490   1.926       .  S
C476        C477   1.413       .  A
C476        C479   1.491       .  S
C477        C478   1.407       .  A
C477       Br485   1.933       .  S
C478       Br489   1.932       .  S
C479        C480   1.404       .  A
C479        C484   1.410       .  A
C480        C481   1.404       .  A
C480       Br491   1.938       .  S
C481        C482   1.414       .  A
C481       Br487   1.909       .  S
C482        C483   1.416       .  A
C483        C484   1.414       .  A
C483       Br492   1.929       .  S
C484       Br488   1.926       .  S
C493        C494   1.410       .  A
C493        C498   1.415       .  A
C494        C495   1.407       .  A
C494       Br506   1.927       .  S
C495        C496   1.409       .  A
C495       Br510   1.932       .  S
C496        C497   1.407       .  A
C496        C499   1.485       .  S
C497        C498   1.410       .  A
C497       Br505   1.929       .  S
C498       Br509   1.930       .  S
C499        C500   1.405       .  A
C499        C504   1.404   1_455  A
C500        C501   1.411   1_455  A
C500       Br511   1.932       .  S
C501        C502   1.423       .  A
C502        C503   1.421       .  A
C503        C504   1.406       .  A
C503       Br512   1.932       .  S
C504       Br508   1.931       .  S
C513        C514   1.415       .  A
C513        C518   1.420       .  A
C514        C515   1.411       .  A
C514       Br526   1.933       .  S
C515        C516   1.414       .  A
C515       Br530   1.928       .  S
C516        C517   1.412       .  A
C516        C519   1.501       .  S
C517        C518   1.412       .  A
C517       Br525   1.933       .  S
C518       Br529   1.934       .  S
C519        C520   1.408       .  A
C519        C524   1.415   1_455  A
C520        C521   1.409   1_455  A
C520       Br531   1.938       .  S
C521        C522   1.423       .  A
C521       Br527   1.931   1_655  S
C522        C523   1.412       .  A
C523        C524   1.417       .  A
C523       Br532   1.925       .  S
C524       Br528   1.928       .  S
C533        C534   1.413       .  A
C533        C538   1.420       .  A
C534        C535   1.408       .  A
C534       Br546   1.926       .  S
C535        C536   1.409       .  A
C535       Br550   1.930       .  S
C536        C537   1.409       .  A
C536        C539   1.490       .  S
C537        C538   1.408       .  A
C537       Br545   1.933       .  S
C539        C540   1.408       .  A
C539        C544   1.408       .  A
C540        C541   1.411       .  A
C540       Br551   1.930       .  S
C541        C542   1.424       .  A
C541       Br547   1.935       .  S
C542        C543   1.419       .  A
C543        C544   1.405       .  A
C543       Br552   1.934       .  S
C544       Br548   1.933       .  S
C553        C554   1.416       .  A
C553        C558   1.416       .  A
C554        C555   1.409       .  A
C554       Br566   1.932       .  S
C555        C556   1.407       .  A
C555       Br570   1.923       .  S
C556        C557   1.410       .  A
C556        C559   1.490       .  S
C557        C558   1.408       .  A
C557       Br565   1.933       .  S
C558       Br569   1.931       .  S
C559        C560   1.404       .  A
C559        C564   1.406       .  A
C560        C561   1.408       .  A
C560       Br571   1.932       .  S
C561        C562   1.421       .  A
C562        C563   1.418       .  A
C563        C564   1.412       .  A
C563       Br572   1.925       .  S
C564       Br568   1.928       .  S
C573        C574   1.409       .  A
C573        C578   1.411       .  A
C574        C575   1.405       .  A
C574       Br586   1.933       .  S
C575        C576   1.413       .  A
C575       Br590   1.933       .  S
C576        C577   1.407       .  A
C576        C579   1.484       .  S
C577        C578   1.407       .  A
C577       Br585   1.928   1_545  S
C578       Br589   1.926       .  S
C579        C580   1.402       .  A
C579        C584   1.404   1_545  A
C580        C581   1.406       .  A
C580       Br591   1.937       .  S
C581        C582   1.417   1_545  A
C581       Br587   1.906       .  S
C582        C583   1.423       .  A
C583        C584   1.409       .  A
C583       Br592   1.929       .  S
C584       Br588   1.931       .  S
C593        C594   1.417   1_565  A
C593        C598   1.417       .  A
C594        C595   1.401       .  A
C595        C596   1.403       .  A
C595       Br610   1.933       .  S
C596        C597   1.409   1_545  A
C596        C599   1.486       .  S
C597        C598   1.412       .  A
C597       Br605   1.927       .  S
C598       Br609   1.930       .  S
C599        C600   1.407       .  A
C599        C604   1.410       .  A
C600        C601   1.413       .  A
C600       Br611   1.927       .  S
C601        C602   1.416       .  A
C601       Br607   1.929       .  S
C602        C603   1.408       .  A
C603        C604   1.403       .  A
C603       Br612   1.923       .  S
C604       Br608   1.935       .  S
C613        C614   1.418       .  A
C613        C618   1.418       .  A
C614        C615   1.409       .  A
C614       Br626   1.932       .  S
C615        C616   1.409       .  A
C615       Br630   1.934       .  S
C616        C617   1.408       .  A
C616        C619   1.490       .  S
C617        C618   1.409       .  A
C617       Br625   1.925       .  S
C618       Br629   1.935       .  S
C619        C620   1.410       .  A
C619        C624   1.405       .  A
C620        C621   1.414       .  A
C620       Br631   1.928       .  S
C621        C622   1.414       .  A
C621       Br627   1.924       .  S
C622        C623   1.422       .  A
C623        C624   1.406       .  A
C624       Br628   1.936       .  S
C633        C634   1.421       .  A
C633        C638   1.423       .  A
C634        C635   1.407       .  A
C634       Br646   1.932       .  S
C635        C636   1.404       .  A
C635       Br650   1.931       .  S
C636        C637   1.407       .  A
C636        C639   1.488       .  S
C637        C638   1.412       .  A
C637       Br645   1.933       .  S
C639        C640   1.406       .  A
C639        C644   1.411       .  A
C640        C641   1.407       .  A
C640       Br651   1.932       .  S
C641        C642   1.419       .  A
C641       Br647   1.933       .  S
C642        C643   1.415       .  A
C643        C644   1.410       .  A
C643       Br652   1.933       .  S
C644       Br648   1.931       .  S
