geometry optimzed in LAMMPS
_audit_creation_date              2020-12-01 
_audit_creation_method            'lammps2cif' 
_symmetry_space_group_name_H-M    'P1' 
_symmetry_Int_Tables_number       1 
_symmetry_cell_setting            triclinic 
loop_ 
_symmetry_equiv_pos_as_xyz 
  x,y,z 
_cell_length_a                    41.34324862 
_cell_length_b                    40.29379526605783 
_cell_length_c                    37.10456758236268 
_cell_angle_alpha                 90.24943712152168 
_cell_angle_beta                  90.108096617776 
_cell_angle_gamma                 89.97486877433936 
loop_ 
_atom_site_label 
_atom_site_type_symbol 
_atom_site_fract_x 
_atom_site_fract_y 
_atom_site_fract_z 
_atom_site_charge 
C1          C  0.26412196  0.22879921  0.87273142     0.80600
N2          N  0.24128387  0.24613444  0.89119785    -0.77700
C3          C  0.22002416  0.26568856  0.87309184     0.83000
N4          N  0.22158126  0.26756564  0.83665742    -0.77700
C5          C  0.24464489  0.25085974  0.81809272     0.83100
N6          N  0.26585052  0.23143368  0.83633048    -0.79400
Zn7        Zn  0.45312496  0.99250373  0.91930108     1.49700
Zn8        Zn  0.48873247  0.03612564  0.98041375     1.49400
Zn9        Zn  0.49570082  0.45762391  0.98046184     1.49100
Zn10       Zn  0.02953986  0.99900659  0.91875051     1.49500
O11         O  0.49164573  0.99646992  0.94969278    -1.83800
O12         O  0.42454170  0.03206771  0.92769265    -0.74400
O13         O  0.48519726  0.02371820  0.03319553    -0.74200
O14         O  0.45828340  0.42735992  0.97257876    -0.73700
O15         O  0.44976976  0.06402220  0.96740992    -0.74400
O16         O  0.42794795  0.45033835  0.93027813    -0.74000
O17         O  0.49504540  0.46953349  0.03284854    -0.74600
O18         O  0.05791877  0.45894661  0.92515767    -0.74000
O19         O  0.02879137  0.06427332  0.97446631    -0.74700
O20         O  0.03603803  0.43141897  0.97049417    -0.74100
O21         O  0.05640906  0.03876431  0.93145580    -0.74600
O22         O  0.01739644  0.00183579  0.86620492    -0.74500
O23         O  0.46439868  0.99365222  0.86604870    -0.74300
C24         C  0.42607142  0.05869404  0.94613469     0.77500
C25         C  0.48917566  0.99637206  0.04974906     0.78000
C26         C  0.43343940  0.42685444  0.95244678     0.77000
C27         C  0.05821674  0.43477395  0.94708168     0.77300
C28         C  0.05354108  0.06233003  0.95408335     0.78500
C29         C  0.49075847  0.99876335  0.84923481     0.77500
C30         C  0.23324285  0.21412554  0.02601509     0.80600
N31         N  0.25283883  0.23535363  0.00777961    -0.77700
C32         C  0.27214566  0.25672207  0.02642418     0.83000
N33         N  0.27144129  0.25691380  0.06296010    -0.77700
C34         C  0.25215963  0.23562015  0.08108427     0.83100
N35         N  0.23299581  0.21435086  0.06253979    -0.79400
C36         C  0.01638033  0.47295952  0.37278302     0.80600
N37         N  0.01047502  0.47062604  0.33689150    -0.77700
C38         C  0.99045241  0.99249072  0.32053913     0.83000
N39         N  0.47658339  0.01705423  0.34023112    -0.77700
C40         C  0.48191884  0.01925004  0.37625562     0.83100
N41         N  0.00185483  0.49715940  0.39263942    -0.79400
Zn42       Zn  0.22190849  0.26181251  0.47785374     1.49700
Zn43       Zn  0.29882322  0.25511371  0.47953149     1.49400
Zn44       Zn  0.25723146  0.21772198  0.41956662     1.49100
Zn45       Zn  0.26433556  0.29667913  0.41717055     1.49500
O46         O  0.26070915  0.25798488  0.44858588    -1.83800
O47         O  0.23297143  0.26426367  0.53023995    -0.74400
O48         O  0.32570363  0.21425709  0.46822064    -0.74200
O49         O  0.21971774  0.18899471  0.43400156    -0.73700
O50         O  0.28603827  0.25545384  0.53204704    -0.74400
O51         O  0.19366800  0.22175950  0.47213012    -0.74000
O52         O  0.29757281  0.19058626  0.42406535    -0.74600
O53         O  0.26342344  0.28261391  0.36521498    -0.74000
O54         O  0.32762074  0.29450371  0.47137338    -0.74700
O55         O  0.25167395  0.22883456  0.36748483    -0.74100
O56         O  0.30523043  0.32309847  0.42709369    -0.74600
O57         O  0.22530464  0.32626934  0.42263543    -0.74500
O58         O  0.19542889  0.30145900  0.46432829    -0.74300
C59         C  0.25910713  0.26031996  0.54786050     0.77500
C60         C  0.32243672  0.19173590  0.44426592     0.78000
C61         C  0.19609713  0.19444789  0.45512267     0.77000
C62         C  0.25639307  0.25531113  0.34972729     0.77300
C63         C  0.32795417  0.31904719  0.44996663     0.78500
C64         C  0.19973037  0.32456762  0.44162515     0.77500
C65         C  0.48542980  0.49299884  0.52130375     0.80600
N66         N  0.48283692  0.49422109  0.55770117    -0.77700
C67         C  0.00370535  0.01264108  0.57776917     0.83000
N68         N  0.02757092  0.02979461  0.56087839    -0.77700
C69         C  0.02998367  0.02905972  0.52430879     0.83100
N70         N  0.00900166  0.51051454  0.50457430    -0.79400
C71         C  0.17129089  0.16837773  0.46028122    -0.11600
C72         C  0.15289419  0.16626639  0.49234061     0.03900
C73         C  0.13064422  0.14062480  0.49652397    -0.12100
C74         C  0.12609353  0.11675255  0.46955764     0.18700
C75         C  0.14382539  0.11879391  0.43739972    -0.09200
C76         C  0.16637359  0.14440535  0.43302602    -0.02100
H77         H  0.11695777  0.13898927  0.52135504     0.05300
C78         C  0.10257602  0.09017846  0.47661226     0.20700
H79         H  0.18003205  0.14560675  0.40816992     0.10400
C80         C  0.06983451  0.09631122  0.46956341    -0.15500
C81         C  0.04592395  0.07595590  0.48419620     0.03400
C82         C  0.05472713  0.04895367  0.50605607    -0.10800
C83         C  0.08753985  0.04191839  0.51178470    -0.00900
C84         C  0.11147996  0.06231184  0.49711569    -0.06000
H85         H  0.06281914  0.11820406  0.45459223     0.06400
H86         H  0.09449797  0.02106285  0.52842501     0.09800
Br87       Br  0.13806517  0.08718577  0.39916151    -0.05700
Br88       Br  0.15777874  0.19589676  0.53275815    -0.02700
Br89       Br  0.00163485  0.08844055  0.47743219     0.00200
Br90       Br  0.15595583  0.05267014  0.50754540    -0.04200
C91         C  0.35468016  0.34386197  0.45235568    -0.11600
C92         C  0.38111313  0.34044751  0.47660336     0.03900
C93         C  0.40325383  0.36636249  0.48074793    -0.12100
C94         C  0.40025569  0.39567432  0.46098050     0.18700
C95         C  0.37581688  0.39823732  0.43479484    -0.09200
C96         C  0.35318104  0.37261430  0.43082264    -0.02100
H97         H  0.42248707  0.36405570  0.50048205     0.05300
C98         C  0.42141129  0.42388998  0.47063024     0.20700
H99         H  0.33391769  0.37565760  0.41129583     0.10400
C100        C  0.45490518  0.42109523  0.46532535    -0.15500
C101        C  0.47614516  0.44427932  0.48053447     0.03400
C102        C  0.46383328  0.47108958  0.50071599    -0.10800
C103        C  0.43036536  0.47442426  0.50514110    -0.00900
C104        C  0.40914687  0.45098893  0.49051952    -0.06000
H105        H  0.46462734  0.39972270  0.45119296     0.06400
H106        H  0.42080247  0.49453086  0.52144387     0.09800
Br107      Br  0.37248990  0.43639782  0.40423045    -0.05700
Br108      Br  0.38920399  0.30183927  0.50560542    -0.02700
Br109      Br  0.52165185  0.43536242  0.47818523     0.00200
Br110      Br  0.36407422  0.45497999  0.50212851    -0.04200
C111        C  0.17328956  0.34825754  0.43492053    -0.11600
C112        C  0.15404646  0.36136641  0.46294537     0.03900
C113        C  0.12693057  0.38067820  0.45460605    -0.12100
C114        C  0.11858153  0.38695979  0.41865485     0.18700
C115        C  0.13830047  0.37471982  0.39073846    -0.09200
C116        C  0.16543164  0.35561380  0.39902257    -0.02100
H117        H  0.11231279  0.39087828  0.47619256     0.05300
C118        C  0.09052636  0.40818509  0.41062811     0.20700
H119        H  0.17994863  0.34566838  0.37720942     0.10400
C120        C  0.09339162  0.44247264  0.41605986    -0.15500
C121        C  0.06873252  0.46395341  0.40529940     0.03400
C122        C  0.04068476  0.45101004  0.38882393    -0.10800
C123        C  0.03740568  0.41658383  0.38437655    -0.00900
C124        C  0.06193254  0.39508880  0.39560541    -0.06000
H125        H  0.11538828  0.45262551  0.42756429     0.06400
H126        H  0.01585634  0.40646928  0.37181590     0.09800
Br127      Br  0.12939659  0.38379331  0.34094110    -0.05700
Br128      Br  0.16462693  0.35521254  0.51285161    -0.02700
Br129      Br  0.07584027  0.51074685  0.41101928     0.00200
Br130      Br  0.05553637  0.34821452  0.38970225    -0.04200
C131        C  0.34810286  0.16650230  0.43939059    -0.11600
C132        C  0.35541799  0.15340657  0.40496746     0.03900
C133        C  0.37931245  0.12921635  0.40133801    -0.12100
C134        C  0.39688958  0.11798414  0.43121819     0.18700
C135        C  0.39039017  0.13155870  0.46548268    -0.09200
C136        C  0.36601027  0.15552932  0.46936465    -0.02100
H137        H  0.38469672  0.11946970  0.37474960     0.05300
C138        C  0.42290685  0.09351311  0.42460990     0.20700
H139        H  0.36107315  0.16564629  0.49587690     0.10400
C140        C  0.44828217  0.10270759  0.40165901    -0.15500
C141        C  0.46929960  0.07891507  0.38752297     0.03400
C142        C  0.46549618  0.04536351  0.39690105    -0.10800
C143        C  0.44184600  0.03639782  0.42206259    -0.00900
C144        C  0.42015424  0.06011543  0.43546513    -0.06000
H145        H  0.45058757  0.12827607  0.39309644     0.06400
H146        H  0.43853452  0.01051371  0.42896663     0.09800
Br147      Br  0.41504565  0.11940477  0.50724154    -0.05700
Br148      Br  0.33593376  0.16928584  0.36119706    -0.02700
Br149      Br  0.50203195  0.09319527  0.35440544     0.00200
Br150      Br  0.38477294  0.04482245  0.46428678    -0.04200
C151        C  0.24948159  0.23826336  0.12038406    -0.11600
C152        C  0.25230169  0.21036697  0.14285820     0.03900
C153        C  0.25033695  0.21438353  0.18019988    -0.12100
C154        C  0.24486425  0.24580371  0.19549402     0.18700
C155        C  0.24105587  0.27350287  0.17288646    -0.09200
C156        C  0.24369739  0.26959687  0.13564591    -0.02100
H157        H  0.25383199  0.19304483  0.19743915     0.05300
C158        C  0.24611915  0.24955738  0.23500371     0.20700
H159        H  0.24083712  0.29107384  0.11848709     0.10400
C160        C  0.27105013  0.26862906  0.25020444    -0.15500
C161        C  0.27459744  0.27124343  0.28749790     0.03400
C162        C  0.25308138  0.25418508  0.31027624    -0.10800
C163        C  0.22806643  0.23512861  0.29503918    -0.00900
C164        C  0.22434336  0.23284316  0.25769238    -0.06000
H165        H  0.28831046  0.28097672  0.23287739     0.06400
H166        H  0.21118962  0.22213866  0.31228078     0.09800
Br167      Br  0.23147301  0.31695040  0.19144804    -0.05700
Br168      Br  0.26102579  0.16679587  0.12417427    -0.02700
Br169      Br  0.31077499  0.29624877  0.30545134     0.00200
Br170      Br  0.18885547  0.20725852  0.23903091    -0.04200
C171        C  0.41009693  0.39892896  0.95580338    -0.11600
C172        C  0.41762861  0.36932228  0.97472694     0.03900
C173        C  0.39381576  0.34521944  0.97983953    -0.12100
C174        C  0.36241779  0.34964247  0.96661263     0.18700
C175        C  0.35503159  0.37834539  0.94679508    -0.09200
C176        C  0.37879065  0.40252204  0.94131146    -0.02100
H177        H  0.39954343  0.32326618  0.99538514     0.05300
C178        C  0.33706945  0.32602367  0.97781677     0.20700
H179        H  0.37232044  0.42473473  0.92662298     0.10400
C180        C  0.31389713  0.33689866  0.00266743    -0.15500
C181        C  0.29173640  0.31478908  0.01748740     0.03400
C182        C  0.29271801  0.28093501  0.00776222    -0.10800
C183        C  0.31503372  0.27016096  0.98172966    -0.00900
C184        C  0.33729854  0.29247946  0.96687404    -0.06000
H185        H  0.31345700  0.36267822  0.01110915     0.06400
H186        H  0.31582318  0.24424488  0.97381958     0.09800
Br187      Br  0.31264085  0.38581467  0.92733284    -0.05700
Br188      Br  0.45941468  0.35944807  0.99499686    -0.02700
Br189      Br  0.25964510  0.33256592  0.04956119     0.00200
Br190      Br  0.36770304  0.27631603  0.93204411    -0.04200
C191        C  0.20949804  0.19344760  0.00712805    -0.11600
C192        C  0.18253350  0.20782267  0.99002881     0.03900
C193        C  0.15753677  0.18759201  0.97722467    -0.12100
C194        C  0.15883780  0.15309682  0.98185556     0.18700
C195        C  0.18617879  0.13868444  0.99825197    -0.09200
C196        C  0.21117415  0.15892558  0.01096064    -0.02100
H197        H  0.13642119  0.19885391  0.96500759     0.05300
C198        C  0.13057543  0.13261562  0.97208648     0.20700
H199        H  0.23154422  0.14780023  0.02479706     0.10400
C200        C  0.13297379  0.11000997  0.94351048    -0.15500
C201        C  0.10809445  0.08742724  0.93621389     0.03400
C202        C  0.07974235  0.08749295  0.95783565    -0.10800
C203        C  0.07704136  0.11150913  0.98537595    -0.00900
C204        C  0.10211034  0.13374376  0.99268432    -0.06000
H205        H  0.15485003  0.10928344  0.92747413     0.06400
H206        H  0.05574777  0.11242641  0.00230424     0.09800
Br207      Br  0.18941374  0.09175978  0.00617314    -0.05700
Br208      Br  0.17708851  0.25497780  0.98734906    -0.02700
Br209      Br  0.11579098  0.05717527  0.89693348     0.00200
Br210      Br  0.09721625  0.16358758  0.03279137    -0.04200
C211        C  0.00116094  0.01202221  0.61769301    -0.11600
C212        C  0.00892063  0.03961648  0.63976723     0.03900
C213        C  0.00628981  0.03712769  0.67734465    -0.12100
C214        C  0.99578777  0.50762278  0.69347267     0.18700
C215        C  0.48727745  0.48046231  0.67160472    -0.09200
C216        C  0.49004941  0.48275433  0.63416322    -0.02100
H217        H  0.01242108  0.05830184  0.69409455     0.05300
C218        C  0.99441426  0.50536101  0.73319848     0.20700
H219        H  0.48379735  0.46131040  0.61788781     0.10400
C220        C  0.46601984  0.01434012  0.75135765    -0.15500
C221        C  0.46404602  0.01235349  0.78901846     0.03400
C222        C  0.49095318  0.00096877  0.80920833    -0.10800
C223        C  0.01940409  0.49221837  0.79064576    -0.00900
C224        C  0.02124122  0.49429922  0.75309001    -0.06000
H225        H  0.44538407  0.02319405  0.73613039     0.06400
H226        H  0.04037231  0.48350573  0.80538501     0.09800
Br227      Br  0.47201020  0.43964107  0.69182091    -0.05700
Br228      Br  0.02114505  0.08194595  0.62053149    -0.02700
Br229      Br  0.42467332  0.02766393  0.81087772     0.00200
Br230      Br  0.06087627  0.48178075  0.72990752    -0.04200
C231        C  0.48733595  0.99537942  0.08945233    -0.11600
C232        C  0.46324631  0.01263185  0.10882693     0.03900
C233        C  0.46249255  0.01074569  0.14644278    -0.12100
C234        C  0.98564940  0.99219018  0.16535566     0.18700
C235        C  0.00927820  0.47437646  0.14598279    -0.09200
C236        C  0.00981089  0.47591728  0.10836288    -0.02100
H237        H  0.44384932  0.02400970  0.16110612     0.05300
C238        C  0.98529101  0.99253104  0.20521379     0.20700
H239        H  0.02834786  0.46237470  0.09382808     0.10400
C240        C  0.47970076  0.46296250  0.22408497    -0.15500
C241        C  0.48068688  0.46241062  0.26178794     0.03400
C242        C  0.48672997  0.99198537  0.28109528    -0.10800
C243        C  0.99111914  0.02169498  0.26222994    -0.00900
C244        C  0.99079057  0.02212433  0.22462623    -0.06000
H245        H  0.47489134  0.44019500  0.20939887     0.06400
H246        H  0.99610727  0.04450253  0.27678061     0.09800
Br247      Br  0.04228874  0.44889098  0.16960238    -0.05700
Br248      Br  0.42972524  0.03756437  0.08544380    -0.02700
Br249      Br  0.47251563  0.42101935  0.28554231     0.00200
Br250      Br  0.00018781  0.06337176  0.20117038    -0.04200
C251        C  0.24672084  0.25345396  0.77838644    -0.11600
C252        C  0.23806432  0.28269504  0.75962030     0.03900
C253        C  0.24062179  0.28364670  0.72207557    -0.12100
C254        C  0.25157610  0.25600150  0.70270715     0.18700
C255        C  0.26048608  0.22703294  0.72115871    -0.09200
C256        C  0.25809524  0.22594976  0.75867177    -0.02100
H257        H  0.23400272  0.30608692  0.70784202     0.05300
C258        C  0.25317638  0.25768296  0.66315136     0.20700
H259        H  0.26486523  0.20331564  0.77242991     0.10400
C260        C  0.27970330  0.27308315  0.64677579    -0.15500
C261        C  0.28210624  0.27454295  0.60920421     0.03400
C262        C  0.25757983  0.26035197  0.58756559    -0.10800
C263        C  0.23066535  0.24569823  0.60422097    -0.00900
C264        C  0.22836308  0.24425083  0.64169609    -0.06000
H265        H  0.29856105  0.28399927  0.66331055     0.06400
H266        H  0.21152422  0.23488125  0.58802159     0.09800
Br267      Br  0.27610889  0.18849658  0.69609374    -0.05700
Br268      Br  0.22431643  0.32287734  0.78313647    -0.02700
Br269      Br  0.31825105  0.29797742  0.58918108     0.00200
Br270      Br  0.19089565  0.22386516  0.66253444    -0.04200
C271        C  0.40043091  0.08443550  0.94193180    -0.11600
C272        C  0.37339516  0.08002308  0.91873074     0.03900
C273        C  0.35163029  0.10600912  0.91349344    -0.12100
C274        C  0.35572730  0.13660184  0.93077684     0.18700
C275        C  0.38154772  0.14089887  0.95504141    -0.09200
C276        C  0.40365226  0.11499177  0.96038139    -0.02100
H277        H  0.33158367  0.10257969  0.89496610     0.05300
C278        C  0.33332035  0.16370701  0.92117315     0.20700
H279        H  0.42373407  0.11909146  0.97865092     0.10400
C280        C  0.30031326  0.16013000  0.92909464    -0.15500
C281        C  0.27737502  0.18151620  0.91403419     0.03400
C282        C  0.28750322  0.20764853  0.89171929    -0.10800
C283        C  0.32052399  0.21167040  0.88445198    -0.00900
C284        C  0.34337061  0.18969918  0.89854325    -0.06000
H285        H  0.29222076  0.13930832  0.94509269     0.06400
H286        H  0.32842856  0.23117146  0.86649881     0.09800
Br287      Br  0.38738565  0.18159594  0.98136182    -0.05700
Br288      Br  0.36390349  0.03995762  0.89238845    -0.02700
Br289      Br  0.23254460  0.17064080  0.91957741     0.00200
Br290      Br  0.38730629  0.19384065  0.88250898    -0.04200
C291        C  0.19611938  0.28614676  0.89233635    -0.11600
C292        C  0.20532983  0.30816759  0.92010666     0.03900
C293        C  0.18258695  0.33001046  0.93485754    -0.12100
C294        C  0.15078786  0.33077972  0.92171411     0.18700
C295        C  0.14166473  0.30899728  0.89370781    -0.09200
C296        C  0.16418552  0.28666873  0.87958222    -0.02100
H297        H  0.19009833  0.34755695  0.95544103     0.05300
C298        C  0.12900211  0.35774449  0.93327035     0.20700
H299        H  0.15709651  0.27057852  0.85746579     0.10400
C300        C  0.13610097  0.39008563  0.92223455    -0.15500
C301        C  0.11416376  0.41591434  0.92783733     0.03400
C302        C  0.08409512  0.40939608  0.94455324    -0.10800
C303        C  0.07810790  0.37727338  0.95782237    -0.00900
C304        C  0.10035646  0.35157156  0.95245158    -0.06000
H305        H  0.15851999  0.39506744  0.90814765     0.06400
H306        H  0.05558536  0.37176740  0.97143065     0.09800
Br307      Br  0.09996846  0.31142695  0.87099555    -0.05700
Br308      Br  0.24932670  0.31251995  0.93548630    -0.02700
Br309      Br  0.12750608  0.45927386  0.91246071     0.00200
Br310      Br  0.09056250  0.30842095  0.97122414    -0.04200
C311        C  0.26410841  0.72879214  0.87274156     0.80600
N312        N  0.24127334  0.74613098  0.89120873    -0.77700
C313        C  0.22001398  0.76568552  0.87310277     0.83000
N314        N  0.22156828  0.76755906  0.83666809    -0.77700
C315        C  0.24462878  0.75084985  0.81810236     0.83100
N316        N  0.26583442  0.73142346  0.83634001    -0.79400
Zn317      Zn  0.45311932  0.49250603  0.91929592     1.49700
Zn318      Zn  0.48872967  0.53612605  0.98040885     1.49400
Zn319      Zn  0.49570061  0.95762181  0.98047267     1.49100
Zn320      Zn  0.02954821  0.49899656  0.91874651     1.49500
O321        O  0.49164198  0.49647297  0.94968381    -1.83800
O322        O  0.42453568  0.53206764  0.92769411    -0.74400
O323        O  0.48519512  0.52371510  0.03319010    -0.74200
O324        O  0.45828229  0.92736007  0.97258842    -0.73700
O325        O  0.44976624  0.56402345  0.96740824    -0.74400
O326        O  0.42795091  0.95033679  0.93028295    -0.74000
O327        O  0.49504215  0.96953534  0.03285686    -0.74600
O328        O  0.05791458  0.95895890  0.92515855    -0.74000
O329        O  0.02879796  0.56426693  0.97445496    -0.74700
O330        O  0.03603546  0.93142702  0.97049281    -0.74100
O331        O  0.05642109  0.53875135  0.93145359    -0.74600
O332        O  0.01740851  0.50182549  0.86620054    -0.74500
O333        O  0.46438637  0.49365753  0.86604166    -0.74300
C334        C  0.42606594  0.55869395  0.94613599     0.77500
C335        C  0.48917651  0.49636884  0.04974252     0.78000
C336        C  0.43344007  0.92685396  0.95245381     0.77000
C337        C  0.05821396  0.93478468  0.94708052     0.77300
C338        C  0.05355146  0.56231918  0.95407823     0.78500
C339        C  0.49074273  0.49877470  0.84922344     0.77500
C340        C  0.23324791  0.71412080  0.02602435     0.80600
N341        N  0.25284162  0.73534993  0.00778717    -0.77700
C342        C  0.27214937  0.75671871  0.02643011     0.83000
N343        N  0.27144863  0.75690940  0.06296610    -0.77700
C344        C  0.25216963  0.73561449  0.08109192     0.83100
N345        N  0.23300475  0.71434493  0.06254914    -0.79400
C346        C  0.01640429  0.97295003  0.37278894     0.80600
N347        N  0.01049820  0.97061832  0.33689758    -0.77700
C348        C  0.99043550  0.49250256  0.32052984     0.83000
N349        N  0.47658615  0.51703345  0.34023330    -0.77700
C350        C  0.48191772  0.51921961  0.37625934     0.83100
N351        N  0.00187237  0.99714337  0.39264898    -0.79400
Zn352      Zn  0.22192807  0.76180023  0.47785189     1.49700
Zn353      Zn  0.29884216  0.75510523  0.47955051     1.49400
Zn354      Zn  0.25726424  0.71771368  0.41957482     1.49100
Zn355      Zn  0.26436657  0.79666810  0.41717783     1.49500
O356        O  0.26073491  0.75797563  0.44859482    -1.83800
O357        O  0.23297944  0.76425309  0.53024164    -0.74400
O358        O  0.32572695  0.71425044  0.46824272    -0.74200
O359        O  0.21976038  0.68897566  0.43401478    -0.73700
O360        O  0.28604653  0.75544634  0.53206359    -0.74400
O361        O  0.19369247  0.72174361  0.47212448    -0.74000
O362        O  0.29761377  0.69059178  0.42406444    -0.74600
O363        O  0.26345616  0.78260148  0.36522244    -0.74000
O364        O  0.32764152  0.79449448  0.47139575    -0.74700
O365        O  0.25169853  0.72882428  0.36749478    -0.74100
O366        O  0.30526388  0.82308225  0.42710251    -0.74600
O367        O  0.22533803  0.82626277  0.42263896    -0.74500
O368        O  0.19545149  0.80144609  0.46431808    -0.74300
C369        C  0.25911143  0.76031111  0.54786950     0.77500
C370        C  0.32247112  0.69173919  0.44427512     0.78000
C371        C  0.19613302  0.69442791  0.45512681     0.77000
C372        C  0.25642150  0.75529924  0.34973606     0.77300
C373        C  0.32798241  0.81903293  0.44998226     0.78500
C374        C  0.19975925  0.82455863  0.44162099     0.77500
C375        C  0.48548488  0.99295772  0.52132031     0.80600
N376        N  0.48289193  0.99418277  0.55771736    -0.77700
C377        C  0.00375971  0.51258847  0.57775930     0.83000
N378        N  0.02762907  0.52973868  0.56087146    -0.77700
C379        C  0.03004629  0.52900333  0.52430243     0.83100
N380        N  0.00893844  0.01056940  0.50458333    -0.79400
C381        C  0.17133311  0.66835133  0.46028675    -0.11600
C382        C  0.15292386  0.66624707  0.49233799     0.03900
C383        C  0.13068307  0.64059736  0.49652436    -0.12100
C384        C  0.12615329  0.61671059  0.46956884     0.18700
C385        C  0.14389675  0.61874530  0.43741845    -0.09200
C386        C  0.16643618  0.64436437  0.43304208    -0.02100
H387        H  0.11698678  0.63896759  0.52134916     0.05300
C388        C  0.10264245  0.59013043  0.47662433     0.20700
H389        H  0.18010410  0.64555990  0.40819211     0.10400
C390        C  0.06990283  0.59624428  0.46954559    -0.15500
C391        C  0.04599166  0.57588517  0.48417102     0.03400
C392        C  0.05479256  0.54889762  0.50605389    -0.10800
C393        C  0.08760496  0.54188121  0.51181343    -0.00900
C394        C  0.11154554  0.56227846  0.49715149    -0.06000
H395        H  0.06288756  0.61812620  0.45455559     0.06400
H396        H  0.09456180  0.52103776  0.52847224     0.09800
Br397      Br  0.13816453  0.58711727  0.39919437    -0.05700
Br398      Br  0.15777713  0.69589977  0.53274092    -0.02700
Br399      Br  0.00170180  0.58834844  0.47736462     0.00200
Br400      Br  0.15601914  0.55266264  0.50762194    -0.04200
C401        C  0.35471160  0.84384385  0.45237051    -0.11600
C402        C  0.38114729  0.84042271  0.47661317     0.03900
C403        C  0.40329201  0.86633398  0.48075759    -0.12100
C404        C  0.40029536  0.89564838  0.46099437     0.18700
C405        C  0.37585367  0.89821768  0.43481275    -0.09200
C406        C  0.35321378  0.87259843  0.43084100    -0.02100
H407        H  0.42252741  0.86402220  0.50048835     0.05300
C408        C  0.42145514  0.92386022  0.47064564     0.20700
H409        H  0.33394828  0.87564659  0.41131774     0.10400
C410        C  0.45494846  0.92106154  0.46533802    -0.15500
C411        C  0.47619224  0.94424098  0.48054910     0.03400
C412        C  0.46388482  0.97105095  0.50073422    -0.10800
C413        C  0.43041772  0.97438862  0.50516361    -0.00900
C414        C  0.40919545  0.95095794  0.49054050    -0.06000
H415        H  0.46466716  0.89968920  0.45120235     0.06400
H416        H  0.42085840  0.99449402  0.52147073     0.09800
Br417      Br  0.37252803  0.93638169  0.40425337    -0.05700
Br418      Br  0.38923765  0.80180881  0.50560650    -0.02700
Br419      Br  0.52169744  0.93531692  0.47819994     0.00200
Br420      Br  0.36412432  0.95495343  0.50215484    -0.04200
C421        C  0.17332149  0.84825209  0.43491615    -0.11600
C422        C  0.15407375  0.86135462  0.46294047     0.03900
C423        C  0.12695994  0.88066910  0.45460099    -0.12100
C424        C  0.11861724  0.88695966  0.41865007     0.18700
C425        C  0.13834096  0.87472654  0.39073424    -0.09200
C426        C  0.16547064  0.85561806  0.39901861    -0.02100
H427        H  0.11233803  0.89086317  0.47618733     0.05300
C428        C  0.09056028  0.90818276  0.41062424     0.20700
H429        H  0.17999123  0.84567754  0.37720586     0.10400
C430        C  0.09342014  0.94247000  0.41606235    -0.15500
C431        C  0.06875776  0.96394844  0.40530526     0.03400
C432        C  0.04071255  0.95100285  0.38882650    -0.10800
C433        C  0.03743865  0.91657672  0.38437381    -0.00900
C434        C  0.06196851  0.89508408  0.39559945    -0.06000
H435        H  0.11541491  0.95262461  0.42756949     0.06400
H436        H  0.01589099  0.90646039  0.37181123     0.09800
Br437      Br  0.12944378  0.88381031  0.34093769    -0.05700
Br438      Br  0.16464374  0.85518666  0.51284737    -0.02700
Br439      Br  0.07585640  0.01074235  0.41103576     0.00200
Br440      Br  0.05557950  0.84820957  0.38968818    -0.04200
C441        C  0.34814163  0.66651316  0.43939551    -0.11600
C442        C  0.35549572  0.65346906  0.40496075     0.03900
C443        C  0.37938219  0.62927128  0.40132509    -0.12100
C444        C  0.39691196  0.61798069  0.43121378     0.18700
C445        C  0.39037800  0.63150987  0.46549156    -0.09200
C446        C  0.36600656  0.65548884  0.46937750    -0.02100
H447        H  0.38479408  0.61956109  0.37472815     0.05300
C448        C  0.42291206  0.59348980  0.42460764     0.20700
H449        H  0.36103918  0.66556832  0.49589939     0.10400
C450        C  0.44832438  0.60268305  0.40170643    -0.15500
C451        C  0.46933933  0.57888442  0.38757703     0.03400
C452        C  0.46549398  0.54532772  0.39691044    -0.10800
C453        C  0.44180169  0.53635860  0.42202078    -0.00900
C454        C  0.42011353  0.56008288  0.43541584    -0.06000
H455        H  0.45066478  0.62825817  0.39317883     0.06400
H456        H  0.43845680  0.51047022  0.42888662     0.09800
Br457      Br  0.41497179  0.61927859  0.50726840    -0.05700
Br458      Br  0.33607206  0.66943023  0.36119278    -0.02700
Br459      Br  0.50212856  0.59316306  0.35452891     0.00200
Br460      Br  0.38467533  0.54479109  0.46415215    -0.04200
C461        C  0.24949717  0.73825510  0.12039236    -0.11600
C462        C  0.25232037  0.71035710  0.14286377     0.03900
C463        C  0.25036043  0.71437098  0.18020612    -0.12100
C464        C  0.24489028  0.74579020  0.19550355     0.18700
C465        C  0.24108009  0.77349115  0.17289909    -0.09200
C466        C  0.24371615  0.76958774  0.13565780    -0.02100
H467        H  0.25385702  0.69303100  0.19744316     0.05300
C468        C  0.24614841  0.74954127  0.23501317     0.20700
H469        H  0.24085423  0.79106610  0.11850129     0.10400
C470        C  0.27108259  0.76860906  0.25021304    -0.15500
C471        C  0.27463000  0.77122441  0.28750636     0.03400
C472        C  0.25311032  0.75417153  0.31028523    -0.10800
C473        C  0.22809316  0.73511760  0.29504895    -0.00900
C474        C  0.22437044  0.73283069  0.25770228    -0.06000
H475        H  0.28834469  0.78095344  0.23288542     0.06400
H476        H  0.21121435  0.72213092  0.31229102     0.09800
Br477      Br  0.23150234  0.81693776  0.19146653    -0.05700
Br478      Br  0.26104277  0.66678746  0.12417482    -0.02700
Br479      Br  0.31081224  0.79622307  0.30545911     0.00200
Br480      Br  0.18888015  0.70724923  0.23904162    -0.04200
C481        C  0.41009746  0.89892856  0.95580981    -0.11600
C482        C  0.41762995  0.86932088  0.97473118     0.03900
C483        C  0.39381749  0.84521749  0.97984312    -0.12100
C484        C  0.36241897  0.84964114  0.96661808     0.18700
C485        C  0.35503188  0.87834534  0.94680298    -0.09200
C486        C  0.37879070  0.90252236  0.94131963    -0.02100
H487        H  0.39954592  0.82326336  0.99538696     0.05300
C488        C  0.33707098  0.82602177  0.97782210     0.20700
H489        H  0.37231998  0.92473594  0.92663297     0.10400
C490        C  0.31389896  0.83689600  0.00267351    -0.15500
C491        C  0.29173842  0.81478603  0.01749305     0.03400
C492        C  0.29271997  0.78093225  0.00776684    -0.10800
C493        C  0.31503522  0.77015891  0.98173347    -0.00900
C494        C  0.33729979  0.79247786  0.96687814    -0.06000
H495        H  0.31345895  0.86267530  0.01111622     0.06400
H496        H  0.31582475  0.74424296  0.97382278     0.09800
Br497      Br  0.31264021  0.88581582  0.92734386    -0.05700
Br498      Br  0.45941692  0.85944592  0.99499845    -0.02700
Br499      Br  0.25964762  0.83256179  0.04956821     0.00200
Br500      Br  0.36770363  0.77631541  0.93204703    -0.04200
C501        C  0.20950449  0.69343932  0.00713925    -0.11600
C502        C  0.18254229  0.70781064  0.99003160     0.03900
C503        C  0.15754793  0.68757706  0.97722709    -0.12100
C504        C  0.15884876  0.65308275  0.98186575     0.18700
C505        C  0.18618720  0.63867397  0.99827110    -0.09200
C506        C  0.21118029  0.65891799  0.01098001    -0.02100
H507        H  0.13643429  0.69883624  0.96500288     0.05300
C508        C  0.13058852  0.63259941  0.97209403     0.20700
H509        H  0.23154848  0.64779551  0.02482258     0.10400
C510        C  0.13299239  0.60998884  0.94352316    -0.15500
C511        C  0.10811289  0.58740723  0.93622274     0.03400
C512        C  0.07975490  0.58747927  0.95783502    -0.10800
C513        C  0.07704954  0.61149922  0.98537089    -0.00900
C514        C  0.10211868  0.63373248  0.99268334    -0.06000
H515        H  0.15487255  0.60925817  0.92749361     0.06400
H516        H  0.05575188  0.61242090  0.00229258     0.09800
Br517      Br  0.18942159  0.59175089  0.00620330    -0.05700
Br518      Br  0.17709682  0.75496497  0.98733918    -0.02700
Br519      Br  0.11581717  0.55714795  0.89695097     0.00200
Br520      Br  0.09721771  0.66358153  0.03278467    -0.04200
C521        C  0.00120937  0.51197482  0.61768299    -0.11600
C522        C  0.00897485  0.53956939  0.63975460     0.03900
C523        C  0.00633869  0.53708624  0.67733184    -0.12100
C524        C  0.99574992  0.00765853  0.69348254     0.18700
C525        C  0.48732020  0.98043506  0.67162034    -0.09200
C526        C  0.49009892  0.98272264  0.63417931    -0.02100
H527        H  0.01247422  0.55826066  0.69407944     0.05300
C528        C  0.99438263  0.00539019  0.73320809     0.20700
H529        H  0.48384872  0.96127710  0.61790555     0.10400
C530        C  0.46598009  0.51433201  0.75134801    -0.15500
C531        C  0.46401160  0.51234236  0.78900905     0.03400
C532        C  0.49093141  0.50098348  0.80919614    -0.10800
C533        C  0.01937532  0.99222059  0.79064664    -0.00900
C534        C  0.02120647  0.99430673  0.75309081    -0.06000
H535        H  0.44533458  0.52316597  0.73612331     0.06400
H536        H  0.04034097  0.98349262  0.80537968     0.09800
Br537      Br  0.47204562  0.93961754  0.69183848    -0.05700
Br538      Br  0.02121544  0.58189294  0.62051609    -0.02700
Br539      Br  0.42462470  0.52761165  0.81087023     0.00200
Br540      Br  0.06082943  0.98176702  0.72989601    -0.04200
C541        C  0.48733763  0.49537503  0.08944642    -0.11600
C542        C  0.46324956  0.51262855  0.10882267     0.03900
C543        C  0.46249780  0.51074325  0.14643883    -0.12100
C544        C  0.98564563  0.49220530  0.16534635     0.18700
C545        C  0.00928078  0.97436246  0.14598888    -0.09200
C546        C  0.00981142  0.97590608  0.10836893    -0.02100
H547        H  0.44385547  0.52400782  0.16110304     0.05300
C548        C  0.98528324  0.49254564  0.20520418     0.20700
H549        H  0.02834789  0.96236492  0.09383170     0.10400
C550        C  0.47969567  0.96296861  0.22409157    -0.15500
C551        C  0.48068163  0.96241956  0.26179461     0.03400
C552        C  0.48673586  0.49197469  0.28109164    -0.10800
C553        C  0.99110906  0.52170754  0.26222138    -0.00900
C554        C  0.99078308  0.52213808  0.22461781    -0.06000
H555        H  0.47488671  0.94020001  0.20940730     0.06400
H556        H  0.99609770  0.54451448  0.27677295     0.09800
Br557      Br  0.04229290  0.94887553  0.16960398    -0.05700
Br558      Br  0.42972769  0.53756153  0.08544162    -0.02700
Br559      Br  0.47251070  0.92103024  0.28555310     0.00200
Br560      Br  0.00018352  0.56338586  0.20116415    -0.04200
C561        C  0.24670181  0.75344227  0.77839529    -0.11600
C562        C  0.23803740  0.78268025  0.75962737     0.03900
C563        C  0.24059342  0.78363067  0.72208248    -0.12100
C564        C  0.25155434  0.75598773  0.70271504     0.18700
C565        C  0.26047142  0.72702213  0.72116803    -0.09200
C566        C  0.25808153  0.72593988  0.75868134    -0.02100
H567        H  0.23396941  0.80606893  0.70784799     0.05300
C568        C  0.25315969  0.75767065  0.66315925     0.20700
H569        H  0.26485758  0.70330809  0.77244034     0.10400
C570        C  0.27968288  0.77308309  0.64678957    -0.15500
C571        C  0.28209170  0.77454482  0.60921855     0.03400
C572        C  0.25757540  0.76034318  0.58757422    -0.10800
C573        C  0.23066353  0.74567818  0.60422325    -0.00900
C574        C  0.22835521  0.74422900  0.64169808    -0.06000
H575        H  0.29853323  0.78400723  0.66332856     0.06400
H576        H  0.21152964  0.73485372  0.58801914     0.09800
Br577      Br  0.27610555  0.68848956  0.69610505    -0.05700
Br578      Br  0.22428143  0.82286137  0.78314025    -0.02700
Br579      Br  0.31822920  0.79799662  0.58920308     0.00200
Br580      Br  0.19089144  0.72382873  0.66252773    -0.04200
C581        C  0.40042327  0.58443345  0.94193622    -0.11600
C582        C  0.37338812  0.58002083  0.91873421     0.03900
C583        C  0.35162122  0.60600540  0.91349949    -0.12100
C584        C  0.35571534  0.63659667  0.93078661     0.18700
C585        C  0.38153465  0.64089346  0.95505269    -0.09200
C586        C  0.40364147  0.61498791  0.96038995    -0.02100
H587        H  0.33157542  0.60257616  0.89497096     0.05300
C588        C  0.33330747  0.66370126  0.92118393     0.20700
H589        H  0.42372241  0.61908740  0.97866068     0.10400
C590        C  0.30030014  0.66012195  0.92910294    -0.15500
C591        C  0.27736164  0.68150771  0.91404224     0.03400
C592        C  0.28748974  0.70764172  0.89172958    -0.10800
C593        C  0.32051068  0.71166601  0.88446500    -0.00900
C594        C  0.34335764  0.68969526  0.89855646    -0.06000
H595        H  0.29220785  0.63929891  0.94509911     0.06400
H596        H  0.32841517  0.73116850  0.86651362     0.09800
Br597      Br  0.38736788  0.68158817  0.98137874    -0.05700
Br598      Br  0.36389992  0.53995744  0.89238659    -0.02700
Br599      Br  0.23253146  0.67063003  0.91958213     0.00200
Br600      Br  0.38729402  0.69383981  0.88252540    -0.04200
C601        C  0.19611186  0.78614753  0.89234655    -0.11600
C602        C  0.20532485  0.80817070  0.92011378     0.03900
C603        C  0.18258424  0.83001805  0.93486151    -0.12100
C604        C  0.15078527  0.83078906  0.92171793     0.18700
C605        C  0.14165960  0.80900399  0.89371525    -0.09200
C606        C  0.16417792  0.78667140  0.87959275    -0.02100
H607        H  0.19009724  0.84756601  0.95544279     0.05300
C608        C  0.12900101  0.85775578  0.93327167     0.20700
H609        H  0.15708691  0.77057926  0.85747875     0.10400
C610        C  0.13609631  0.89009465  0.92222544    -0.15500
C611        C  0.11415859  0.91592357  0.92782557     0.03400
C612        C  0.08409327  0.90940763  0.94455043    -0.10800
C613        C  0.07810983  0.87728725  0.95782842    -0.00900
C614        C  0.10035851  0.85158545  0.95245938    -0.06000
H615        H  0.15851266  0.89507417  0.90813225     0.06400
H616        H  0.05558988  0.87178263  0.97144265     0.09800
Br617      Br  0.09996272  0.81143429  0.87100448    -0.05700
Br618      Br  0.24932191  0.81251834  0.93549454    -0.02700
Br619      Br  0.12749569  0.95927955  0.91243140     0.00200
Br620      Br  0.09056839  0.80843771  0.97124198    -0.04200
C621        C  0.76411131  0.22879259  0.87273611     0.80600
N622        N  0.74127389  0.24612962  0.89120172    -0.77700
C623        C  0.72001694  0.26568602  0.87309462     0.83000
N624        N  0.72157610  0.26756359  0.83666049    -0.77700
C625        C  0.74463902  0.25085636  0.81809652     0.83100
N626        N  0.76584210  0.23142790  0.83633518    -0.79400
Zn627      Zn  0.95312042  0.99250650  0.91930551     1.49700
Zn628      Zn  0.98872708  0.03612619  0.98042110     1.49400
Zn629      Zn  0.99570409  0.45761924  0.98046789     1.49100
Zn630      Zn  0.52954673  0.99899648  0.91875278     1.49500
O631        O  0.99164186  0.99647351  0.94969508    -1.83800
O632        O  0.92453696  0.03206883  0.92770074    -0.74400
O633        O  0.98519186  0.02371304  0.03320148    -0.74200
O634        O  0.95828604  0.42735556  0.97258546    -0.73700
O635        O  0.94976317  0.06402287  0.96741986    -0.74400
O636        O  0.92795522  0.45032992  0.93027792    -0.74000
O637        O  0.99504509  0.46953403  0.03285282    -0.74600
O638        O  0.55791014  0.45895385  0.92514321    -0.74000
O639        O  0.52879701  0.06427097  0.97445527    -0.74700
O640        O  0.53603388  0.43142541  0.97048178    -0.74100
O641        O  0.55641818  0.03875389  0.93145328    -0.74600
O642        O  0.51740753  0.00181976  0.86620723    -0.74500
O643        O  0.96438965  0.99365743  0.86605206    -0.74300
C644        C  0.92606514  0.05869430  0.94614425     0.77500
C645        C  0.98917286  0.99636609  0.04975271     0.78000
C646        C  0.93344384  0.42684854  0.95245069     0.77000
C647        C  0.55821013  0.43478063  0.94706647     0.77300
C648        C  0.55354850  0.06232366  0.95407551     0.78500
C649        C  0.99074637  0.99877557  0.84923494     0.77500
C650        C  0.73324635  0.21411831  0.02601942     0.80600
N651        N  0.75283980  0.23534824  0.00778299    -0.77700
C652        C  0.77214807  0.25671592  0.02642656     0.83000
N653        N  0.77144818  0.25690475  0.06296242    -0.77700
C654        C  0.75216948  0.23560927  0.08108777     0.83100
N655        N  0.73300388  0.21434067  0.06254436    -0.79400
C656        C  0.51639830  0.47294658  0.37278133     0.80600
N657        N  0.51049409  0.47061634  0.33688948    -0.77700
C658        C  0.49044585  0.99250707  0.32053322     0.83000
N659        N  0.97658475  0.01703109  0.34024281    -0.77700
C660        C  0.98191802  0.01921855  0.37626843     0.83100
N661        N  0.50186832  0.49714149  0.39264079    -0.79400
Zn662      Zn  0.72192598  0.26179771  0.47784964     1.49700
Zn663      Zn  0.79884105  0.25510642  0.47954146     1.49400
Zn664      Zn  0.75726022  0.21771482  0.41956789     1.49100
Zn665      Zn  0.76435914  0.29667093  0.41717460     1.49500
O666        O  0.76073140  0.25797622  0.44858934    -1.83800
O667        O  0.73298070  0.26425181  0.53023805    -0.74400
O668        O  0.82572225  0.21424864  0.46823609    -0.74200
O669        O  0.71975496  0.18897687  0.43400411    -0.73700
O670        O  0.78604903  0.25545234  0.53205578    -0.74400
O671        O  0.69369207  0.22174000  0.47212239    -0.74000
O672        O  0.79760800  0.19059014  0.42405849    -0.74600
O673        O  0.76345095  0.28260622  0.36521837    -0.74000
O674        O  0.82764143  0.29449447  0.47138127    -0.74700
O675        O  0.75169714  0.22882784  0.36748879    -0.74100
O676        O  0.80525428  0.32308927  0.42709963    -0.74600
O677        O  0.72532676  0.32626019  0.42263750    -0.74500
O678        O  0.69544480  0.30144125  0.46431913    -0.74300
C679        C  0.75911452  0.26031478  0.54786379     0.77500
C680        C  0.82246495  0.19173638  0.44426985     0.78000
C681        C  0.69612983  0.19442662  0.45511995     0.77000
C682        C  0.75641880  0.25530364  0.34973121     0.77300
C683        C  0.82797724  0.31903714  0.44997335     0.78500
C684        C  0.69974900  0.32455358  0.44162103     0.77500
C685        C  0.98546805  0.49297275  0.52130583     0.80600
N686        N  0.98287723  0.49419338  0.55770366    -0.77700
C687        C  0.50377138  0.01258167  0.57777208     0.83000
N688        N  0.52764016  0.02973280  0.56088387    -0.77700
C689        C  0.53005937  0.02899329  0.52431474     0.83100
N690        N  0.50896258  0.51054216  0.50457278    -0.79400
C691        C  0.67132986  0.16834956  0.46027927    -0.11600
C692        C  0.65291655  0.16624765  0.49232796     0.03900
C693        C  0.63067869  0.14059552  0.49651541    -0.12100
C694        C  0.62615514  0.11670411  0.46956354     0.18700
C695        C  0.64390078  0.11873754  0.43741451    -0.09200
C696        C  0.66643765  0.14435893  0.43303715    -0.02100
H697        H  0.61698003  0.13896726  0.52133869     0.05300
C698        C  0.60264905  0.09012030  0.47662270     0.20700
H699        H  0.68010788  0.14555283  0.40818865     0.10400
C700        C  0.56990897  0.09622556  0.46953803    -0.15500
C701        C  0.54600015  0.07586689  0.48416897     0.03400
C702        C  0.55480389  0.04888838  0.50606384    -0.10800
C703        C  0.58761709  0.04188004  0.51182948    -0.00900
C704        C  0.61155527  0.06227680  0.49716179    -0.06000
H705        H  0.56289106  0.11810135  0.45453907     0.06400
H706        H  0.59457630  0.02104328  0.52849688     0.09800
Br707      Br  0.63817576  0.08710453  0.39919397    -0.05700
Br708      Br  0.65775903  0.19590704  0.53272676    -0.02700
Br709      Br  0.50170882  0.08831999  0.47735193     0.00200
Br710      Br  0.65602978  0.05267279  0.50764054    -0.04200
C711        C  0.85470573  0.34384945  0.45236083    -0.11600
C712        C  0.88113305  0.34043913  0.47661687     0.03900
C713        C  0.90327650  0.36635208  0.48075722    -0.12100
C714        C  0.90028686  0.39565792  0.46097787     0.18700
C715        C  0.87585404  0.39821610  0.43478472    -0.09200
C716        C  0.85321543  0.37259501  0.43081623    -0.02100
H717        H  0.92250507  0.36404891  0.50049749     0.05300
C718        C  0.92144457  0.42387304  0.47062394     0.20700
H719        H  0.83395702  0.37563452  0.41128268     0.10400
C720        C  0.95493892  0.42107160  0.46532693    -0.15500
C721        C  0.97618035  0.44425222  0.48053973     0.03400
C722        C  0.96386990  0.47106558  0.50071732    -0.10800
C723        C  0.93040175  0.47440721  0.50513446    -0.00900
C724        C  0.90918139  0.45097596  0.49050791    -0.06000
H725        H  0.96465988  0.39969600  0.45119903     0.06400
H726        H  0.92083976  0.49451633  0.52143424     0.09800
Br727      Br  0.87253915  0.43636700  0.40420476    -0.05700
Br728      Br  0.88921189  0.30184035  0.50563780    -0.02700
Br729      Br  0.02168585  0.43532619  0.47820258     0.00200
Br730      Br  0.86410656  0.45497793  0.50210213    -0.04200
C731        C  0.67330798  0.34824297  0.43491560    -0.11600
C732        C  0.65406121  0.36134754  0.46293963     0.03900
C733        C  0.62694587  0.38065968  0.45459945    -0.12100
C734        C  0.61860067  0.38694563  0.41864812     0.18700
C735        C  0.63832268  0.37470910  0.39073256    -0.09200
C736        C  0.66545371  0.35560310  0.39901764    -0.02100
H737        H  0.61232538  0.39085647  0.47618547     0.05300
C738        C  0.59054564  0.40817115  0.41062124     0.20700
H739        H  0.67997338  0.34566057  0.37720515     0.10400
C740        C  0.59340930  0.44245827  0.41605799    -0.15500
C741        C  0.56874984  0.46393939  0.40529908     0.03400
C742        C  0.54070344  0.45099669  0.38882023    -0.10800
C743        C  0.53742574  0.41657081  0.38436839    -0.00900
C744        C  0.56195291  0.39507546  0.39559547    -0.06000
H745        H  0.61540495  0.45261067  0.42756532     0.06400
H746        H  0.51587727  0.40645680  0.37180537     0.09800
Br747      Br  0.62942281  0.38378642  0.34093521    -0.05700
Br748      Br  0.66463536  0.35518674  0.51284651    -0.02700
Br749      Br  0.57585441  0.51073268  0.41102687     0.00200
Br750      Br  0.55555877  0.34820158  0.38968477    -0.04200
C751        C  0.84813333  0.16650774  0.43939288    -0.11600
C752        C  0.85548947  0.15346330  0.40495888     0.03900
C753        C  0.87937514  0.12926440  0.40132551    -0.12100
C754        C  0.89690195  0.11797290  0.43121593     0.18700
C755        C  0.89036482  0.13150125  0.46549336    -0.09200
C756        C  0.86599439  0.15548154  0.46937682    -0.02100
H757        H  0.88478930  0.11955459  0.37472895     0.05300
C758        C  0.92290368  0.09348340  0.42461194     0.20700
H759        H  0.86102500  0.16556096  0.49589829     0.10400
C760        C  0.94831825  0.10267897  0.40171492    -0.15500
C761        C  0.96933628  0.07888209  0.38758782     0.03400
C762        C  0.96549201  0.04532492  0.39691974    -0.10800
C763        C  0.94179697  0.03635348  0.42202588    -0.00900
C764        C  0.92010551  0.06007594  0.43541811    -0.06000
H765        H  0.95065816  0.12825449  0.39318859     0.06400
H766        H  0.93845244  0.01046459  0.42888973     0.09800
Br767      Br  0.91495322  0.11926777  0.50727328    -0.05700
Br768      Br  0.83607039  0.16942616  0.36118924    -0.02700
Br769      Br  0.00212722  0.09316347  0.35454322     0.00200
Br770      Br  0.88466331  0.04478108  0.46414625    -0.04200
C771        C  0.74949686  0.23825064  0.12038824    -0.11600
C772        C  0.75231551  0.21035294  0.14286084     0.03900
C773        C  0.75035778  0.21436890  0.18020313    -0.12100
C774        C  0.74489415  0.24578993  0.19549923     0.18700
C775        C  0.74108834  0.27349062  0.17289371    -0.09200
C776        C  0.74372223  0.26958506  0.13565262    -0.02100
H777        H  0.75385044  0.19302891  0.19744112     0.05300
C778        C  0.74615169  0.24954232  0.23500863     0.20700
H779        H  0.74086381  0.29106335  0.11849544     0.10400
C780        C  0.77108893  0.26860563  0.25020914    -0.15500
C781        C  0.77463414  0.27122259  0.28750265     0.03400
C782        C  0.75310913  0.25417601  0.31028058    -0.10800
C783        C  0.72808893  0.23512687  0.29504377    -0.00900
C784        C  0.72436841  0.23283832  0.25769707    -0.06000
H785        H  0.78835474  0.28094518  0.23288208     0.06400
H786        H  0.71120628  0.22214497  0.31228545     0.09800
Br787      Br  0.73151934  0.31694001  0.19145925    -0.05700
Br788      Br  0.76102811  0.16678049  0.12417393    -0.02700
Br789      Br  0.81082023  0.29621378  0.30545801     0.00200
Br790      Br  0.68887386  0.20726372  0.23903540    -0.04200
C791        C  0.91009996  0.39892448  0.95580914    -0.11600
C792        C  0.91763132  0.36931729  0.97473189     0.03900
C793        C  0.89381773  0.34521531  0.97984552    -0.12100
C794        C  0.86241908  0.34964017  0.96662120     0.18700
C795        C  0.85503272  0.37834438  0.94680592    -0.09200
C796        C  0.87879272  0.40251973  0.94132049    -0.02100
H797        H  0.89954553  0.32326112  0.99538952     0.05300
C798        C  0.83707060  0.32602085  0.97782394     0.20700
H799        H  0.87232263  0.42473324  0.92663333     0.10400
C800        C  0.81389874  0.33689404  0.00267608    -0.15500
C801        C  0.79173727  0.31478364  0.01749322     0.03400
C802        C  0.79271819  0.28093048  0.00776432    -0.10800
C803        C  0.81503295  0.27015846  0.98172986    -0.00900
C804        C  0.83729800  0.29247794  0.96687643    -0.06000
H805        H  0.81345938  0.36267274  0.01112091     0.06400
H806        H  0.81582171  0.24424310  0.97381685     0.09800
Br807      Br  0.81264055  0.38581676  0.92734892    -0.05700
Br808      Br  0.95941839  0.35944115  0.99499814    -0.02700
Br809      Br  0.75964604  0.33255799  0.04956875     0.00200
Br810      Br  0.86770033  0.27631776  0.93204251    -0.04200
C811        C  0.70950153  0.19343936  0.00713307    -0.11600
C812        C  0.68254310  0.20781382  0.99002109     0.03900
C813        C  0.65754823  0.18758325  0.97721229    -0.12100
C814        C  0.65884437  0.15308895  0.98185182     0.18700
C815        C  0.68617848  0.13867702  0.99826273    -0.09200
C816        C  0.71117257  0.15891794  0.01097494    -0.02100
H817        H  0.63643730  0.19884489  0.96498493     0.05300
C818        C  0.63058242  0.13260907  0.97207848     0.20700
H819        H  0.73153751  0.14779309  0.02482114     0.10400
C820        C  0.63298519  0.10999764  0.94350827    -0.15500
C821        C  0.60810562  0.08741539  0.93621051     0.03400
C822        C  0.57974962  0.08748685  0.95782597    -0.10800
C823        C  0.57704425  0.11150937  0.98535913    -0.00900
C824        C  0.60211292  0.13374394  0.99266816    -0.06000
H825        H  0.65486477  0.10926631  0.92747777     0.06400
H826        H  0.55574728  0.11243176  0.00228187     0.09800
Br827      Br  0.68940454  0.09175396  0.00619920    -0.05700
Br828      Br  0.67710192  0.25496862  0.98733004    -0.02700
Br829      Br  0.61580663  0.05715640  0.89693761     0.00200
Br830      Br  0.59721196  0.16359716  0.03276587    -0.04200
C831        C  0.50121672  0.01197081  0.61769525    -0.11600
C832        C  0.50897359  0.03956841  0.63976581     0.03900
C833        C  0.50633183  0.03708733  0.67734282    -0.12100
C834        C  0.49574406  0.50764777  0.69347004     0.18700
C835        C  0.98731935  0.48043686  0.67160885    -0.09200
C836        C  0.99009142  0.48272677  0.63416707    -0.02100
H837        H  0.51246231  0.05826348  0.69409010     0.05300
C838        C  0.49437663  0.50538164  0.73319576     0.20700
H839        H  0.98383693  0.46128288  0.61789273     0.10400
C840        C  0.96598594  0.01433966  0.75136052    -0.15500
C841        C  0.96401665  0.01234698  0.78902121     0.03400
C842        C  0.99093585  0.00098602  0.80920786    -0.10800
C843        C  0.51937067  0.49221718  0.79063497    -0.00900
C844        C  0.52120105  0.49430040  0.75307893    -0.06000
H845        H  0.94534080  0.02317510  0.73613619     0.06400
H846        H  0.54033676  0.48349062  0.80536820     0.09800
Br847      Br  0.97205110  0.43961722  0.69182767    -0.05700
Br848      Br  0.52120884  0.08189258  0.62052504    -0.02700
Br849      Br  0.92462958  0.02761535  0.81088285     0.00200
Br850      Br  0.56082390  0.48175965  0.72988444    -0.04200
C851        C  0.98733281  0.99537069  0.08945640    -0.11600
C852        C  0.96324570  0.01262554  0.10883273     0.03900
C853        C  0.96249372  0.01073980  0.14644881    -0.12100
C854        C  0.48564911  0.99219816  0.16535066     0.18700
C855        C  0.50928752  0.47436956  0.14597923    -0.09200
C856        C  0.50981800  0.47591280  0.10835922    -0.02100
H857        H  0.94385233  0.02400566  0.16111313     0.05300
C858        C  0.48528959  0.99253997  0.20520828     0.20700
H859        H  0.52835542  0.46237293  0.09382208     0.10400
C860        C  0.97968579  0.46297356  0.22408481    -0.15500
C861        C  0.98067036  0.46242152  0.26178775     0.03400
C862        C  0.98673443  0.99197275  0.28110121    -0.10800
C863        C  0.49111543  0.02170656  0.26222233    -0.00900
C864        C  0.49078827  0.02213414  0.22461899    -0.06000
H865        H  0.97487552  0.44020641  0.20939841     0.06400
H866        H  0.49610294  0.04451502  0.27677149     0.09800
Br867      Br  0.54230161  0.44888578  0.16959484    -0.05700
Br868      Br  0.92972564  0.03756141  0.08545194    -0.02700
Br869      Br  0.97249499  0.42103101  0.28554181     0.00200
Br870      Br  0.50018599  0.06338065  0.20116144    -0.04200
C871        C  0.74671621  0.25345192  0.77839008    -0.11600
C872        C  0.73805393  0.28269140  0.75962376     0.03900
C873        C  0.74061032  0.28364341  0.72207892    -0.12100
C874        C  0.75156969  0.25600056  0.70271019     0.18700
C875        C  0.76048639  0.22703414  0.72116191    -0.09200
C876        C  0.75809599  0.22595029  0.75867504    -0.02100
H877        H  0.73398691  0.30608239  0.70784548     0.05300
C878        C  0.75317129  0.25768312  0.66315424     0.20700
H879        H  0.76487077  0.20331754  0.77243290     0.10400
C880        C  0.77969269  0.27309546  0.64678092    -0.15500
C881        C  0.78209848  0.27455485  0.60920952     0.03400
C882        C  0.75758136  0.26035019  0.58756864    -0.10800
C883        C  0.73067104  0.24568579  0.60422138    -0.00900
C884        C  0.72836533  0.24423970  0.64169649    -0.06000
H885        H  0.79854401  0.28402120  0.66331726     0.06400
H886        H  0.71153627  0.23485943  0.58802002     0.09800
Br887      Br  0.77611963  0.18850204  0.69609743    -0.05700
Br888      Br  0.72429962  0.32287188  0.78313915    -0.02700
Br889      Br  0.81823287  0.29800784  0.58918883     0.00200
Br890      Br  0.69090289  0.22384125  0.66253124    -0.04200
C891        C  0.90042299  0.08443407  0.94194209    -0.11600
C892        C  0.87338830  0.08002051  0.91873968     0.03900
C893        C  0.85162224  0.10600529  0.91350195    -0.12100
C894        C  0.85571636  0.13659760  0.93078694     0.18700
C895        C  0.88153501  0.14089530  0.95505378    -0.09200
C896        C  0.90364136  0.11498969  0.96039355    -0.02100
H897        H  0.83157680  0.10257513  0.89497314     0.05300
C898        C  0.83330843  0.16370168  0.92118238     0.20700
H899        H  0.92372193  0.11908991  0.97866455     0.10400
C900        C  0.80030062  0.16012140  0.92909859    -0.15500
C901        C  0.77736248  0.18150683  0.91403658     0.03400
C902        C  0.78749143  0.20764155  0.89172529    -0.10800
C903        C  0.82051275  0.21166668  0.88446344    -0.00900
C904        C  0.84335937  0.18969632  0.89855618    -0.06000
H905        H  0.79220782  0.13929793  0.94509380     0.06400
H906        H  0.82841796  0.23116977  0.86651321     0.09800
Br907      Br  0.88736748  0.18159104  0.98137823    -0.05700
Br908      Br  0.86389902  0.03995489  0.89239655    -0.02700
Br909      Br  0.73253224  0.17062776  0.91957328     0.00200
Br910      Br  0.88729653  0.19384260  0.88252835    -0.04200
C911        C  0.69611218  0.28614577  0.89233674    -0.11600
C912        C  0.70532189  0.30816860  0.92010557     0.03900
C913        C  0.68257908  0.33001458  0.93485129    -0.12100
C914        C  0.65078123  0.33078452  0.92170422     0.18700
C915        C  0.64165892  0.30899990  0.89369980    -0.09200
C916        C  0.66417940  0.28666856  0.87957925    -0.02100
H917        H  0.69008954  0.34756240  0.95543388     0.05300
C918        C  0.62899533  0.35775042  0.93325604     0.20700
H919        H  0.65709116  0.27057679  0.85746383     0.10400
C920        C  0.63609152  0.39008958  0.92221163    -0.15500
C921        C  0.61415391  0.41591846  0.92781162     0.03400
C922        C  0.58408799  0.40940241  0.94453484    -0.10800
C923        C  0.57810301  0.37728145  0.95781030    -0.00900
C924        C  0.60035149  0.35157945  0.95244108    -0.06000
H925        H  0.65850879  0.39506947  0.90812041     0.06400
H926        H  0.55558229  0.37177680  0.97142291     0.09800
Br927      Br  0.59996420  0.31142962  0.87098401    -0.05700
Br928      Br  0.74931736  0.31251719  0.93549211    -0.02700
Br929      Br  0.62749237  0.45927488  0.91242062     0.00200
Br930      Br  0.59055973  0.30843085  0.97122041    -0.04200
C931        C  0.76410716  0.72878643  0.87274275     0.80600
N932        N  0.74127021  0.74612289  0.89120956    -0.77700
C933        C  0.72001277  0.76567976  0.87310362     0.83000
N934        N  0.72157081  0.76755791  0.83666935    -0.77700
C935        C  0.74463326  0.75085097  0.81810413     0.83100
N936        N  0.76583690  0.73142256  0.83634199    -0.79400
Zn937      Zn  0.95312792  0.49249693  0.91929378     1.49700
Zn938      Zn  0.98873174  0.53612233  0.98040701     1.49400
Zn939      Zn  0.99570036  0.95762307  0.98047109     1.49100
Zn940      Zn  0.52953884  0.49900418  0.91873732     1.49500
O941        O  0.99164755  0.49646651  0.94968663    -1.83800
O942        O  0.92454186  0.53205889  0.92768549    -0.74400
O943        O  0.98519311  0.52371537  0.03318821    -0.74200
O944        O  0.95828344  0.92735819  0.97258607    -0.73700
O945        O  0.94976853  0.56401730  0.96740023    -0.74400
O946        O  0.92794774  0.95033952  0.93028733    -0.74000
O947        O  0.99504246  0.96953141  0.03285777    -0.74600
O948        O  0.55791723  0.95894733  0.92516712    -0.74000
O949        O  0.52879576  0.56426985  0.97445282    -0.74700
O950        O  0.53603299  0.93141896  0.97050057    -0.74100
O951        O  0.55641225  0.53875951  0.93144228    -0.74600
O952        O  0.51739339  0.50183438  0.86619243    -0.74500
O953        O  0.96440215  0.49364465  0.86604056    -0.74300
C954        C  0.92606997  0.55868619  0.94612606     0.77500
C955        C  0.98917425  0.49637067  0.04974355     0.78000
C956        C  0.93343907  0.92685438  0.95245450     0.77000
C957        C  0.55821319  0.93477388  0.94708997     0.77300
C958        C  0.55354582  0.56232489  0.95407056     0.78500
C959        C  0.99076065  0.49876297  0.84922668     0.77500
C960        C  0.73324503  0.71412012  0.02602124     0.80600
N961        N  0.75283913  0.73534918  0.00778439    -0.77700
C962        C  0.77214784  0.75671676  0.02642764     0.83000
N963        N  0.77144751  0.75690663  0.06296353    -0.77700
C964        C  0.75216815  0.73561208  0.08108922     0.83100
N965        N  0.73300224  0.71434343  0.06254622    -0.79400
C966        C  0.51639500  0.97297255  0.37278730     0.80600
N967        N  0.51048785  0.97063424  0.33689658    -0.77700
C968        C  0.49045193  0.49249162  0.32052999     0.83000
N969        N  0.97657416  0.51704875  0.34023028    -0.77700
C970        C  0.98190755  0.51923911  0.37625553     0.83100
N971        N  0.50186878  0.99717373  0.39264144    -0.79400
Zn972      Zn  0.72191015  0.76180507  0.47786047     1.49700
Zn973      Zn  0.79882560  0.75511587  0.47954414     1.49400
Zn974      Zn  0.75724283  0.71771920  0.41957549     1.49100
Zn975      Zn  0.76433656  0.79667537  0.41717891     1.49500
O976        O  0.76071313  0.75798205  0.44859537    -1.83800
O977        O  0.73296958  0.76425321  0.53024846    -0.74400
O978        O  0.82571496  0.71426593  0.46823093    -0.74200
O979        O  0.71973484  0.68898464  0.43401136    -0.73700
O980        O  0.78603717  0.75544886  0.53205865    -0.74400
O981        O  0.69367498  0.72174867  0.47213228    -0.74000
O982        O  0.79759015  0.69059306  0.42407161    -0.74600
O983        O  0.76343213  0.78260960  0.36522272    -0.74000
O984        O  0.82761541  0.79451302  0.47139254    -0.74700
O985        O  0.75168391  0.72883004  0.36749363    -0.74100
O986        O  0.80522533  0.82310135  0.42710767    -0.74600
O987        O  0.72530241  0.82626098  0.42264159    -0.74500
O988        O  0.69542803  0.80145125  0.46433610    -0.74300
C989        C  0.75910463  0.76031089  0.54787065     0.77500
C990        C  0.82245325  0.69174676  0.44427316     0.78000
C991        C  0.69611092  0.69443570  0.45512855     0.77000
C992        C  0.75640405  0.75530595  0.34973540     0.77300
C993        C  0.82794644  0.81905598  0.44998500     0.78500
C994        C  0.69972865  0.82455953  0.44163217     0.77500
C995        C  0.98540884  0.99302477  0.52131807     0.80600
N996        N  0.98282263  0.99424431  0.55771612    -0.77700
C997        C  0.50371621  0.51261913  0.57775736     0.83000
N998        N  0.52758495  0.52977114  0.56087042    -0.77700
C999        C  0.53000441  0.52903372  0.52430151     0.83100
N1000       N  0.50901755  0.01049988  0.50458781    -0.79400
C1001       C  0.67130903  0.66836126  0.46028757    -0.11600
C1002       C  0.65290829  0.66625115  0.49234424     0.03900
C1003       C  0.63066237  0.64060598  0.49652825    -0.12100
C1004       C  0.62611962  0.61672896  0.46956529     0.18700
C1005       C  0.64385604  0.61876847  0.43741034    -0.09200
C1006       C  0.66640027  0.64438350  0.43303602    -0.02100
H1007       H  0.61697213  0.63897202  0.52135687     0.05300
C1008       C  0.60260284  0.59015390  0.47661844     0.20700
H1009       H  0.68006208  0.64558363  0.40818215     0.10400
C1010       C  0.56986243  0.59628308  0.46955955    -0.15500
C1011       C  0.54595011  0.57592741  0.48418816     0.03400
C1012       C  0.55475048  0.54892769  0.50605311    -0.10800
C1013       C  0.58756253  0.54189628  0.51179259    -0.00900
C1014       C  0.61150439  0.56229069  0.49712854    -0.06000
H1015       H  0.56284871  0.61817376  0.45458374     0.06400
H1016       H  0.59451851  0.52104333  0.52843780     0.09800
Br1017     Br  0.63810701  0.58715322  0.39917689    -0.05700
Br1018     Br  0.65778087  0.69588911  0.53275708    -0.02700
Br1019     Br  0.50166162  0.58840925  0.47741195     0.00200
Br1020     Br  0.65597858  0.55265546  0.50757444    -0.04200
C1021       C  0.85466624  0.84387719  0.45237773    -0.11600
C1022       C  0.88110046  0.84046620  0.47662415     0.03900
C1023       C  0.90323667  0.86638501  0.48076960    -0.12100
C1024       C  0.90023199  0.89569797  0.46100535     0.18700
C1025       C  0.87578998  0.89825955  0.43482333    -0.09200
C1026       C  0.85315945  0.87263198  0.43084921    -0.02100
H1027       H  0.92247190  0.86408001  0.50050158     0.05300
C1028       C  0.92138620  0.92391503  0.47065312     0.20700
H1029       H  0.83389409  0.87567356  0.41132457     0.10400
C1030       C  0.95487905  0.92112472  0.46533819    -0.15500
C1031       C  0.97611998  0.94430937  0.48054434     0.03400
C1032       C  0.96380983  0.97111562  0.50073353    -0.10800
C1033       C  0.93034257  0.97444587  0.50516883    -0.00900
C1034       C  0.90912325  0.95101014  0.49054955    -0.06000
H1035       H  0.96460027  0.89975501  0.45119992     0.06400
H1036       H  0.92078119  0.99454948  0.52147717     0.09800
Br1037     Br  0.87245108  0.93642412  0.40426650    -0.05700
Br1038     Br  0.88919894  0.80185770  0.50562314    -0.02700
Br1039     Br  0.02162706  0.93539803  0.47817954     0.00200
Br1040     Br  0.86405250  0.95499533  0.50216979    -0.04200
C1041       C  0.67328864  0.84825092  0.43492865    -0.11600
C1042       C  0.65404700  0.86136141  0.46295400     0.03900
C1043       C  0.62693494  0.88067927  0.45461534    -0.12100
C1044       C  0.61858816  0.88696508  0.41866439     0.18700
C1045       C  0.63830513  0.87472247  0.39074769    -0.09200
C1046       C  0.66543264  0.85561084  0.39903107    -0.02100
H1047       H  0.61231822  0.89088046  0.47620217     0.05300
C1048       C  0.59053554  0.90819395  0.41063758     0.20700
H1049       H  0.67994853  0.84566443  0.37721750     0.10400
C1050       C  0.59340564  0.94248191  0.41606363    -0.15500
C1051       C  0.56874850  0.96396467  0.40530150     0.03400
C1052       C  0.54069818  0.95102281  0.38883014    -0.10800
C1053       C  0.53741479  0.91659654  0.38438789    -0.00900
C1054       C  0.56193942  0.89509977  0.39561839    -0.06000
H1055       H  0.61540439  0.95263324  0.42756463     0.06400
H1056       H  0.51586357  0.90648314  0.37183014     0.09800
Br1057     Br  0.62940284  0.88379918  0.34095075    -0.05700
Br1058     Br  0.66462453  0.85520180  0.51286018    -0.02700
Br1059     Br  0.57586221  0.01075799  0.41101182     0.00200
Br1060     Br  0.55553710  0.84822575  0.38972188    -0.04200
C1061       C  0.84812404  0.66651962  0.43939491    -0.11600
C1062       C  0.85545401  0.65344475  0.40496685     0.03900
C1063       C  0.87934650  0.62925298  0.40133386    -0.12100
C1064       C  0.89690606  0.61799836  0.43121679     0.18700
C1065       C  0.89039457  0.63155555  0.46548659    -0.09200
C1066       C  0.86601718  0.65552843  0.46937119    -0.02100
H1067       H  0.88474054  0.61952014  0.37474200     0.05300
C1068       C  0.92291309  0.59351589  0.42460949     0.20700
H1069       H  0.86106873  0.66563058  0.49588740     0.10400
C1070       C  0.94830409  0.60270533  0.40167752    -0.15500
C1071       C  0.96931592  0.57890636  0.38754348     0.03400
C1072       C  0.96548938  0.54535340  0.39690328    -0.10800
C1073       C  0.94182179  0.53639072  0.42204538    -0.00900
C1074       C  0.92013660  0.56011513  0.43544621    -0.06000
H1075       H  0.95062774  0.62827605  0.39312896     0.06400
H1076       H  0.93849248  0.51050551  0.42893413     0.09800
Br1077     Br  0.91502819  0.61937188  0.50725107    -0.05700
Br1078     Br  0.83598959  0.66935394  0.36119865    -0.02700
Br1079     Br  0.00207441  0.59317972  0.35445460     0.00200
Br1080     Br  0.88473109  0.54482957  0.46423592    -0.04200
C1081       C  0.74949548  0.73825402  0.12038966    -0.11600
C1082       C  0.75231989  0.71035735  0.14286271     0.03900
C1083       C  0.75036036  0.71437318  0.18020497    -0.12100
C1084       C  0.74488953  0.74579308  0.19550075     0.18700
C1085       C  0.74107905  0.77349282  0.17289459    -0.09200
C1086       C  0.74371452  0.76958741  0.13565345    -0.02100
H1087       H  0.75385691  0.69303406  0.19744324     0.05300
C1088       C  0.74614375  0.74954548  0.23501064     0.20700
H1089       H  0.74085212  0.79106482  0.11849574     0.10400
C1090       C  0.77107535  0.76861495  0.25021357    -0.15500
C1091       C  0.77461828  0.77123147  0.28750753     0.03400
C1092       C  0.75309714  0.75417764  0.31028391    -0.10800
C1093       C  0.72808237  0.73512253  0.29504455    -0.00900
C1094       C  0.72436358  0.73283508  0.25769736    -0.06000
H1095       H  0.78833868  0.78095995  0.23288805     0.06400
H1096       H  0.71120209  0.72213560  0.31228463     0.09800
Br1097     Br  0.73150077  0.81694040  0.19145903    -0.05700
Br1098     Br  0.76104264  0.66678702  0.12417589    -0.02700
Br1099     Br  0.81079617  0.79623373  0.30546527     0.00200
Br1100     Br  0.68887479  0.70725388  0.23903252    -0.04200
C1101       C  0.91009571  0.89892970  0.95581034    -0.11600
C1102       C  0.91763010  0.86931832  0.97472368     0.03900
C1103       C  0.89381691  0.84521590  0.97983721    -0.12100
C1104       C  0.86241597  0.84964378  0.96662055     0.18700
C1105       C  0.85502689  0.87835200  0.94681305    -0.09200
C1106       C  0.87878619  0.90252833  0.94132898    -0.02100
H1107       H  0.89954714  0.82325872  0.99537511     0.05300
C1108       C  0.83706870  0.82602303  0.97782387     0.20700
H1109       H  0.87231394  0.92474501  0.92664862     0.10400
C1110       C  0.81389545  0.83689578  0.00267473    -0.15500
C1111       C  0.79173468  0.81478480  0.01749208     0.03400
C1112       C  0.79271788  0.78093126  0.00776521    -0.10800
C1113       C  0.81503438  0.77015924  0.98173262    -0.00900
C1114       C  0.83729855  0.79247937  0.96687862    -0.06000
H1115       H  0.81345434  0.86267477  0.01111842     0.06400
H1116       H  0.81582490  0.74424353  0.97382124     0.09800
Br1117     Br  0.81263221  0.88582878  0.92736456    -0.05700
Br1118     Br  0.95942132  0.85943674  0.99497609    -0.02700
Br1119     Br  0.75964085  0.83255879  0.04956469     0.00200
Br1120     Br  0.86770256  0.77631859  0.93204672    -0.04200
C1121       C  0.70950005  0.69344095  0.00713526    -0.11600
C1122       C  0.68253807  0.70781478  0.99002970     0.03900
C1123       C  0.65754377  0.68758322  0.97722125    -0.12100
C1124       C  0.65884339  0.65308836  0.98185577     0.18700
C1125       C  0.68618102  0.63867723  0.99826063    -0.09200
C1126       C  0.71117478  0.65891923  0.01097193    -0.02100
H1127       H  0.63643055  0.69884440  0.96499828     0.05300
C1128       C  0.63058226  0.63260683  0.97208197     0.20700
H1129       H  0.73154255  0.64779479  0.02481339     0.10400
C1130       C  0.63298748  0.60999308  0.94351410    -0.15500
C1131       C  0.60810814  0.58741097  0.93621469     0.03400
C1132       C  0.57974881  0.58748585  0.95782476    -0.10800
C1133       C  0.57704143  0.61150997  0.98535609    -0.00900
C1134       C  0.60211033  0.63374374  0.99266760    -0.06000
H1135       H  0.65486890  0.60925975  0.92748681     0.06400
H1136       H  0.55574224  0.61243465  0.00227520     0.09800
Br1137     Br  0.68941327  0.59175356  0.00619008    -0.05700
Br1138     Br  0.67709145  0.75496945  0.98734831    -0.02700
Br1139     Br  0.61581518  0.55714621  0.89694857     0.00200
Br1140     Br  0.59720573  0.66359851  0.03276345    -0.04200
C1141       C  0.50116425  0.51200445  0.61768077    -0.11600
C1142       C  0.50892476  0.53959954  0.63975353     0.03900
C1143       C  0.50628974  0.53711404  0.67733076    -0.12100
C1144       C  0.49578321  0.00762295  0.69348368     0.18700
C1145       C  0.98728586  0.98047322  0.67161584    -0.09200
C1146       C  0.99005305  0.98276879  0.63417424    -0.02100
H1147       H  0.51242293  0.55828839  0.69407952     0.05300
C1148       C  0.49440980  0.00536071  0.73320915     0.20700
H1149       H  0.98380217  0.96132531  0.61789759     0.10400
C1150       C  0.96600896  0.51429630  0.75134241    -0.15500
C1151       C  0.96403413  0.51231070  0.78900330     0.03400
C1152       C  0.99095601  0.50096938  0.80919891    -0.10800
C1153       C  0.51938627  0.99217433  0.79065157    -0.00900
C1154       C  0.52122222  0.99425424  0.75309583    -0.06000
H1155       H  0.94536148  0.52311602  0.73611122     0.06400
H1156       H  0.54034279  0.98342859  0.80538823     0.09800
Br1157     Br  0.97202706  0.93964785  0.69183009    -0.05700
Br1158     Br  0.52115663  0.58192614  0.62051612    -0.02700
Br1159     Br  0.92463469  0.52756161  0.81085139     0.00200
Br1160     Br  0.56083692  0.98167715  0.72990702    -0.04200
C1161       C  0.98733317  0.49538031  0.08944721    -0.11600
C1162       C  0.96324591  0.51263794  0.10882047     0.03900
C1163       C  0.96249190  0.51075494  0.14643666    -0.12100
C1164       C  0.48565455  0.49219519  0.16534584     0.18700
C1165       C  0.50928371  0.97437365  0.14598561    -0.09200
C1166       C  0.50981609  0.97591760  0.10836589    -0.02100
H1167       H  0.94384997  0.52402211  0.16109872     0.05300
C1168       C  0.48529522  0.49253495  0.20520400     0.20700
H1169       H  0.52835456  0.96237848  0.09382963     0.10400
C1170       C  0.97969733  0.96295904  0.22409592    -0.15500
C1171       C  0.98068516  0.96240812  0.26179882     0.03400
C1172       C  0.98672084  0.49198510  0.28109150    -0.10800
C1173       C  0.49112168  0.52169732  0.26222132    -0.00900
C1174       C  0.49079430  0.52212765  0.22461758    -0.06000
H1175       H  0.97488751  0.94019113  0.20941080     0.06400
H1176       H  0.49610946  0.54450454  0.27677283     0.09800
Br1177     Br  0.54229738  0.94889063  0.16960294    -0.05700
Br1178     Br  0.92972786  0.53757334  0.08543550    -0.02700
Br1179     Br  0.97251633  0.92101725  0.28555502     0.00200
Br1180     Br  0.50019188  0.56337559  0.20116308    -0.04200
C1181       C  0.74670965  0.75344552  0.77839715    -0.11600
C1182       C  0.73803443  0.78267944  0.75962759     0.03900
C1183       C  0.74059246  0.78362991  0.72208279    -0.12100
C1184       C  0.75156637  0.75599134  0.70271728     0.18700
C1185       C  0.76049494  0.72703051  0.72117164    -0.09200
C1186       C  0.75810292  0.72594800  0.75868461    -0.02100
H1187       H  0.73395905  0.80606445  0.70784679     0.05300
C1188       C  0.75316867  0.75767161  0.66316149     0.20700
H1189       H  0.76488718  0.70331911  0.77244417     0.10400
C1190       C  0.77969464  0.77307479  0.64678751    -0.15500
C1191       C  0.78209916  0.77453498  0.60921611     0.03400
C1192       C  0.75757555  0.76034098  0.58757581    -0.10800
C1193       C  0.73066230  0.74568316  0.60422960    -0.00900
C1194       C  0.72835851  0.74423542  0.64170477    -0.06000
H1195       H  0.79855010  0.78399353  0.66332341     0.06400
H1196       H  0.71152347  0.73486348  0.58802905     0.09800
Br1197     Br  0.77614435  0.68850366  0.69611037    -0.05700
Br1198     Br  0.72425860  0.82285511  0.78313702    -0.02700
Br1199     Br  0.81824189  0.79797464  0.58919559     0.00200
Br1200     Br  0.69089397  0.72384290  0.66254146    -0.04200
C1201       C  0.90042648  0.58442476  0.94192387    -0.11600
C1202       C  0.87339538  0.58001342  0.91871565     0.03900
C1203       C  0.85162673  0.60599679  0.91348187    -0.12100
C1204       C  0.85571520  0.63658555  0.93077599     0.18700
C1205       C  0.88153073  0.64088100  0.95504728    -0.09200
C1206       C  0.90363923  0.61497682  0.96038354    -0.02100
H1207       H  0.83158397  0.60256867  0.89494896     0.05300
C1208       C  0.83330572  0.66368958  0.92117602     0.20700
H1209       H  0.92371689  0.61907535  0.97865901     0.10400
C1210       C  0.80029810  0.66010692  0.92909181    -0.15500
C1211       C  0.77735942  0.68149532  0.91403555     0.03400
C1212       C  0.78748771  0.70763436  0.89172980    -0.10800
C1213       C  0.82050889  0.71166164  0.88446860    -0.00900
C1214       C  0.84335602  0.68968913  0.89855622    -0.06000
H1215       H  0.79220598  0.63928030  0.94508264     0.06400
H1216       H  0.82841357  0.73116814  0.86652244     0.09800
Br1217     Br  0.88735622  0.68157205  0.98138224    -0.05700
Br1218     Br  0.86391550  0.53995360  0.89235798    -0.02700
Br1219     Br  0.73252918  0.67061639  0.91957275     0.00200
Br1220     Br  0.88729328  0.69384005  0.88253025    -0.04200
C1221       C  0.69610926  0.78613970  0.89234770    -0.11600
C1222       C  0.70532097  0.80816062  0.92011741     0.03900
C1223       C  0.68257912  0.83000480  0.93486801    -0.12100
C1224       C  0.65078019  0.83077578  0.92172422     0.18700
C1225       C  0.64165623  0.80899426  0.89371745    -0.09200
C1226       C  0.66417571  0.78666394  0.87959271    -0.02100
H1227       H  0.69009125  0.84755096  0.95545151     0.05300
C1228       C  0.62899575  0.85774159  0.93328024     0.20700
H1229       H  0.65708604  0.77057423  0.85747611     0.10400
C1230       C  0.63609533  0.89008194  0.92224256    -0.15500
C1231       C  0.61415902  0.91591155  0.92784440     0.03400
C1232       C  0.58409077  0.90939509  0.94456212    -0.10800
C1233       C  0.57810279  0.87727307  0.95783289    -0.00900
C1234       C  0.60035025  0.85157022  0.95246227    -0.06000
H1235       H  0.65851406  0.89506228  0.90815445     0.06400
H1236       H  0.55558038  0.87176831  0.97144198     0.09800
Br1237     Br  0.59996094  0.81142779  0.87100343    -0.05700
Br1238     Br  0.74931814  0.81251067  0.93549696    -0.02700
Br1239     Br  0.62750179  0.95926949  0.91246265     0.00200
Br1240     Br  0.59055474  0.80842012  0.97123522    -0.04200
loop_ 
_geom_bond_atom_site_label_1 
_geom_bond_atom_site_label_2 
_geom_bond_distance 
_geom_bond_site_symmetry_2 
_ccdc_geom_bond_type 
C1            N2   1.359       .  A
C1            N6   1.357       .  A
C1          C282   1.469       .  S
N2            C3   1.359       .  A
C3            N4   1.356       .  A
C3          C291   1.471       .  S
N4            C5   1.355       .  A
C5            N6   1.357       .  A
C5          C251   1.480       .  S
Zn7          O11   1.956       .  S
Zn7          O12   2.008   1_565  S
Zn7          O23   2.032       .  S
Zn7         O326   2.036       .  S
Zn8          O11   1.963   1_545  S
Zn8          O13   2.029   1_556  S
Zn8          O15   2.023       .  S
Zn8         O639   2.021       .  S
Zn9         O321   1.949       .  S
Zn9          O14   1.991       .  S
Zn9          O17   2.000   1_556  S
Zn9         O640   2.007       .  S
Zn10        O631   1.947   1_455  S
Zn10         O21   2.004   1_565  S
Zn10         O22   2.016   1_565  S
Zn10        O328   2.009       .  S
O11        Zn319   1.949       .  S
O11        Zn630   1.947       .  S
O12          C24   1.272       .  A
O13          C25   1.274   1_545  A
O14          C26   1.269       .  A
O15          C24   1.275       .  A
O16        Zn317   2.036       .  S
O16          C26   1.276       .  A
O17         C335   1.271       .  A
O18        Zn320   2.009       .  S
O18          C27   1.272       .  A
O19        Zn628   2.021   1_455  S
O19          C28   1.276       .  A
O20        Zn629   2.007   1_455  S
O20          C27   1.272       .  A
O21          C28   1.270       .  A
O22         C649   1.274   1_445  A
O23          C29   1.274       .  A
C24         C271   1.491       .  S
C25         C231   1.476       .  S
C25         O327   1.271       .  A
C26         C171   1.488       .  S
C27         C302   1.482       .  S
C28         C202   1.490       .  S
C29         C222   1.488   1_565  S
C29         O642   1.274   1_565  A
C30          N31   1.361       .  A
C30          N35   1.355       .  A
C30         C191   1.464       .  S
N31          C32   1.360       .  A
C32          N33   1.356       .  A
C32         C182   1.471       .  S
N33          C34   1.353       .  A
C34          N35   1.352       .  A
C34         C151   1.466       .  S
C36          N37   1.356       .  A
C36          N41   1.360       .  A
C36         C122   1.465       .  S
N37         C348   1.354   1_455  A
C38         N347   1.354   1_655  A
C38         N659   1.355   1_565  A
C38         C862   1.471       .  S
N39          C40   1.357       .  A
N39         C658   1.355   1_545  A
C40         N971   1.358   1_545  A
C40         C142   1.466       .  S
N41         C970   1.358   1_455  A
Zn42         O46   1.945       .  S
Zn42         O47   1.998       .  S
Zn42         O51   2.003       .  S
Zn42         O58   2.001       .  S
Zn43         O46   1.952       .  S
Zn43         O48   2.029       .  S
Zn43         O50   2.020       .  S
Zn43         O54   2.009       .  S
Zn44         O46   1.948       .  S
Zn44         O49   2.011       .  S
Zn44         O52   2.001       .  S
Zn44         O55   1.998       .  S
Zn45         O46   1.957       .  S
Zn45         O53   2.007       .  S
Zn45         O56   2.031       .  S
Zn45         O57   2.016       .  S
O47          C59   1.272       .  A
O48          C60   1.275       .  A
O49          C61   1.272       .  A
O50          C59   1.274       .  A
O51          C61   1.270       .  A
O52          C60   1.272       .  A
O53          C62   1.272       .  A
O54          C63   1.271       .  A
O55          C62   1.272       .  A
O56          C63   1.276       .  A
O57          C64   1.274       .  A
O58          C64   1.271       .  A
C59         C262   1.475       .  S
C60         C131   1.480       .  S
C61          C71   1.482       .  S
C62         C162   1.470       .  S
C63          C91   1.493       .  S
C64         C111   1.472       .  S
C65          N66   1.356       .  A
C65         N690   1.356       .  A
C65         C102   1.467       .  S
N66         C997   1.357       .  A
C67          N68   1.360       .  A
C67         N996   1.357   1_445  A
C67         C211   1.486       .  S
N68          C69   1.361       .  A
C69         N380   1.357       .  A
C69          C82   1.468       .  S
N70         C685   1.356   1_455  A
N70         C379   1.357       .  A
C71          C72   1.416       .  A
C71          C76   1.410       .  A
C72          C73   1.393       .  A
C72         Br88   1.923       .  S
C73          C74   1.397       .  A
C73          H77   1.084       .  S
C74          C78   1.471       .  S
C74          C75   1.404       .  A
C75          C76   1.401       .  A
C75         Br87   1.917       .  S
C76          H79   1.084       .  S
C78          C80   1.400       .  A
C78          C84   1.408       .  A
C80          C81   1.397       .  A
C80          H85   1.084       .  S
C81          C82   1.407       .  A
C81         Br89   1.915       .  S
C82          C83   1.402       .  A
C83          C84   1.399       .  A
C83          H86   1.083       .  S
C84         Br90   1.918       .  S
C91          C92   1.421       .  A
C91          C96   1.411       .  A
C92          C93   1.397       .  A
C92        Br108   1.924       .  S
C93          C94   1.398       .  A
C93          H97   1.084       .  S
C94          C98   1.477       .  S
C94          C95   1.405       .  A
C95          C96   1.401       .  A
C95        Br107   1.919       .  S
C96          H99   1.083       .  S
C98         C100   1.403       .  A
C98         C104   1.410       .  A
C100        C101   1.399       .  A
C100        H105   1.084       .  S
C101        C102   1.407       .  A
C101       Br109   1.917       .  S
C102        C103   1.400       .  A
C103        C104   1.396       .  A
C103        H106   1.084       .  S
C104       Br110   1.920       .  S
C111        C112   1.411       .  A
C111        C116   1.403       .  A
C112        C113   1.399       .  A
C112       Br128   1.919       .  S
C113        C114   1.401       .  A
C113        H117   1.084       .  S
C114        C118   1.472       .  S
C114        C115   1.407       .  A
C115        C116   1.395       .  A
C115       Br127   1.920       .  S
C116        H119   1.084       .  S
C118        C120   1.400       .  A
C118        C124   1.408       .  A
C120        C121   1.396       .  A
C120        H125   1.083       .  S
C121        C122   1.409       .  A
C121       Br129   1.919       .  S
C122        C123   1.403       .  A
C123        C124   1.397       .  A
C123        H126   1.084       .  S
C124       Br130   1.919       .  S
C131        C132   1.413       .  A
C131        C136   1.408       .  A
C132        C133   1.394       .  A
C132       Br148   1.923       .  S
C133        C134   1.401       .  A
C133        H137   1.084       .  S
C134        C138   1.479       .  S
C134        C135   1.408       .  A
C135        C136   1.403       .  A
C135       Br147   1.918       .  S
C136        H139   1.083       .  S
C138        C140   1.403       .  A
C138        C144   1.411       .  A
C140        C141   1.395       .  A
C140        H145   1.084       .  S
C141        C142   1.406       .  A
C141       Br149   1.920       .  S
C142        C143   1.402       .  A
C143        C144   1.401       .  A
C143        H146   1.084       .  S
C144       Br150   1.917       .  S
C151        C152   1.407       .  A
C151        C156   1.402       .  A
C152        C153   1.397       .  A
C152       Br168   1.919       .  S
C153        C154   1.404       .  A
C153        H157   1.083       .  S
C154        C158   1.474       .  S
C154        C155   1.408       .  A
C155        C156   1.395       .  A
C155       Br167   1.920       .  S
C156        H159   1.083       .  S
C158        C160   1.402       .  A
C158        C164   1.408       .  A
C160        C161   1.395       .  A
C160        H165   1.084       .  S
C161        C162   1.409       .  A
C161       Br169   1.920       .  S
C162        C163   1.405       .  A
C163        C164   1.397       .  A
C163        H166   1.084       .  S
C164       Br170   1.920       .  S
C171        C172   1.421       .  A
C171        C176   1.408       .  A
C172        C173   1.397       .  A
C172       Br188   1.925       .  S
C173        C174   1.399       .  A
C173        H177   1.084       .  S
C174        C178   1.477       .  S
C174        C175   1.406       .  A
C175        C176   1.399       .  A
C175       Br187   1.918       .  S
C176        H179   1.083       .  S
C178        C180   1.400   1_556  A
C178        C184   1.410       .  A
C180        C181   1.394       .  A
C180        H185   1.084       .  S
C181        C182   1.410       .  A
C181       Br189   1.920       .  S
C182        C183   1.404   1_554  A
C183        C184   1.402       .  A
C183        H186   1.084       .  S
C184       Br190   1.916       .  S
C191        C192   1.407   1_554  A
C191        C196   1.401       .  A
C192        C193   1.398       .  A
C192       Br208   1.916       .  S
C193        C194   1.402       .  A
C193        H197   1.083       .  S
C194        C198   1.475       .  S
C194        C195   1.409       .  A
C195        C196   1.397   1_556  A
C195       Br207   1.919   1_556  S
C196        H199   1.083       .  S
C198        C200   1.398       .  A
C198        C204   1.405       .  A
C200        C201   1.399       .  A
C200        H205   1.084       .  S
C201        C202   1.422       .  A
C201       Br209   1.923       .  S
C202        C203   1.409       .  A
C203        C204   1.396       .  A
C203        H206   1.083   1_556  S
C204       Br210   1.920   1_556  S
C211        C212   1.415       .  A
C211       C1146   1.408   1_445  A
C212        C213   1.403       .  A
C212       Br228   1.920       .  S
C213        C524   1.402   1_455  A
C213        H217   1.083       .  S
C214        C218   1.478       .  S
C214        C523   1.402   1_655  A
C214        C835   1.404       .  A
C215        C216   1.398       .  A
C215        C834   1.404       .  A
C215       Br227   1.918       .  S
C216       C1141   1.408       .  A
C216        H219   1.083       .  S
C218        C224   1.405   1_655  A
C218       C1150   1.401       .  A
C220        C221   1.403       .  A
C220       C1148   1.401       .  A
C220        H225   1.084       .  S
C221        C222   1.417       .  A
C221       Br229   1.920       .  S
C222       C1153   1.408   1_545  A
C223        C224   1.399       .  A
C223       C1152   1.408   1_455  A
C223        H226   1.083       .  S
C224       Br230   1.918       .  S
C231        C232   1.411   1_565  A
C231       C1166   1.405       .  A
C232        C233   1.399       .  A
C232       Br248   1.920       .  S
C233        C854   1.403   1_545  A
C233        H237   1.084       .  S
C234        C238   1.479       .  S
C234        C853   1.403   1_565  A
C234        C545   1.409   1_655  A
C235        C236   1.398       .  A
C235        C544   1.409   1_455  A
C235       Br247   1.920       .  S
C236       C1161   1.405   1_455  A
C236        H239   1.084       .  S
C238        C244   1.409   1_565  A
C238       C1170   1.404       .  A
C240        C241   1.400       .  A
C240       C1168   1.404       .  A
C240        H245   1.083       .  S
C241        C552   1.410       .  A
C241       Br249   1.920       .  S
C242        C658   1.471       .  S
C242        C551   1.410       .  A
C242        C863   1.402   1_565  A
C243        C244   1.395       .  A
C243        C862   1.402   1_545  A
C243        H246   1.084       .  S
C244       Br250   1.920   1_655  S
C251        C252   1.417       .  A
C251        C256   1.406       .  A
C252        C253   1.398       .  A
C252       Br268   1.922       .  S
C253        C254   1.399       .  A
C253        H257   1.084       .  S
C254        C258   1.471       .  S
C254        C255   1.404       .  A
C255        C256   1.396       .  A
C255       Br267   1.919       .  S
C256        H259   1.084       .  S
C258        C260   1.401       .  A
C258        C264   1.405       .  A
C260        C261   1.399       .  A
C260        H265   1.083       .  S
C261        C262   1.412       .  A
C261       Br269   1.920       .  S
C262        C263   1.405       .  A
C263        C264   1.395       .  A
C263        H266   1.083       .  S
C264       Br270   1.919       .  S
C271        C272   1.420       .  A
C271        C276   1.412       .  A
C272        C273   1.394       .  A
C272       Br288   1.924       .  S
C273        C274   1.397       .  A
C273        H277   1.084       .  S
C274        C278   1.476       .  S
C274        C275   1.405       .  A
C275        C276   1.402       .  A
C275       Br287   1.920       .  S
C276        H279   1.083       .  S
C278        C280   1.404       .  A
C278        C284   1.409       .  A
C280        C281   1.398       .  A
C280        H285   1.083       .  S
C281        C282   1.407       .  A
C281       Br289   1.916       .  S
C282        C283   1.402       .  A
C283        C284   1.397       .  A
C283        H286   1.083       .  S
C284       Br290   1.920       .  S
C291        C292   1.409       .  A
C291        C296   1.402       .  A
C292        C293   1.398       .  A
C292       Br308   1.913       .  S
C293        C294   1.402       .  A
C293        H297   1.084       .  S
C294        C298   1.474       .  S
C294        C295   1.408       .  A
C295        C296   1.396       .  A
C295       Br307   1.920       .  S
C296        H299   1.084       .  S
C298        C300   1.399       .  A
C298        C304   1.406       .  A
C300        C301   1.395       .  A
C300        H305   1.084       .  S
C301        C302   1.416       .  A
C301       Br309   1.922       .  S
C302        C303   1.409       .  A
C303        C304   1.399       .  A
C303        H306   1.084       .  S
C304       Br310   1.919       .  S
C311        N312   1.359       .  A
C311        N316   1.357       .  A
C311        C592   1.469       .  S
N312        C313   1.359       .  A
C313        N314   1.356       .  A
C313        C601   1.471       .  S
N314        C315   1.355       .  A
C315        N316   1.357       .  A
C315        C561   1.480       .  S
Zn317       O321   1.956       .  S
Zn317       O322   2.008       .  S
Zn317       O333   2.032       .  S
Zn318       O321   1.963       .  S
Zn318       O323   2.029   1_556  S
Zn318       O325   2.023       .  S
Zn318       O949   2.021       .  S
Zn319       O324   1.991       .  S
Zn319       O327   2.000   1_556  S
Zn319       O950   2.007       .  S
Zn320       O941   1.947   1_455  S
Zn320       O331   2.004       .  S
Zn320       O332   2.016       .  S
O321       Zn940   1.947       .  S
O322        C334   1.272       .  A
O323        C335   1.274       .  A
O324        C336   1.269       .  A
O325        C334   1.275       .  A
O326        C336   1.276       .  A
O328        C337   1.272       .  A
O329       Zn938   2.021   1_455  S
O329        C338   1.276       .  A
O330       Zn939   2.007   1_455  S
O330        C337   1.272       .  A
O331        C338   1.270       .  A
O332        C959   1.274   1_455  A
O333        C339   1.274       .  A
C334        C581   1.491       .  S
C335        C541   1.476       .  S
C336        C481   1.488       .  S
C337        C612   1.482       .  S
C338        C512   1.490       .  S
C339        C532   1.488       .  S
C339        O952   1.274       .  A
C340        N341   1.361       .  A
C340        N345   1.355       .  A
C340        C501   1.464       .  S
N341        C342   1.360       .  A
C342        N343   1.356       .  A
C342        C492   1.471       .  S
N343        C344   1.353       .  A
C344        N345   1.352       .  A
C344        C461   1.466       .  S
C346        N347   1.356       .  A
C346        N351   1.360       .  A
C346        C432   1.465       .  S
C348        N969   1.355       .  A
C348       C1172   1.471       .  S
N349        C968   1.355       .  A
N349        C350   1.357       .  A
C350        N661   1.358       .  A
C350        C452   1.466       .  S
N351        C660   1.358   1_465  A
Zn352       O356   1.945       .  S
Zn352       O357   1.998       .  S
Zn352       O361   2.003       .  S
Zn352       O368   2.001       .  S
Zn353       O356   1.952       .  S
Zn353       O358   2.029       .  S
Zn353       O360   2.020       .  S
Zn353       O364   2.009       .  S
Zn354       O356   1.948       .  S
Zn354       O359   2.011       .  S
Zn354       O362   2.001       .  S
Zn354       O365   1.998       .  S
Zn355       O356   1.957       .  S
Zn355       O363   2.007       .  S
Zn355       O366   2.031       .  S
Zn355       O367   2.016       .  S
O357        C369   1.272       .  A
O358        C370   1.275       .  A
O359        C371   1.272       .  A
O360        C369   1.274       .  A
O361        C371   1.270       .  A
O362        C370   1.272       .  A
O363        C372   1.272       .  A
O364        C373   1.271       .  A
O365        C372   1.272       .  A
O366        C373   1.276       .  A
O367        C374   1.274       .  A
O368        C374   1.271       .  A
C369        C572   1.475       .  S
C370        C441   1.480       .  S
C371        C381   1.482       .  S
C372        C472   1.470       .  S
C373        C401   1.493       .  S
C374        C421   1.472       .  S
C375        N376   1.356       .  A
C375       N1000   1.356   1_565  A
C375        C412   1.467       .  S
N376        C687   1.357   1_565  A
C377        N686   1.357   1_455  A
C377        N378   1.360       .  A
C377        C521   1.486       .  S
N378        C379   1.361       .  A
C379        C392   1.468       .  S
N380        C995   1.356   1_445  A
C381        C382   1.416       .  A
C381        C386   1.410       .  A
C382        C383   1.393       .  A
C382       Br398   1.923       .  S
C383        C384   1.397       .  A
C383        H387   1.084       .  S
C384        C388   1.471       .  S
C384        C385   1.404       .  A
C385        C386   1.401       .  A
C385       Br397   1.917       .  S
C386        H389   1.084       .  S
C388        C390   1.400       .  A
C388        C394   1.408       .  A
C390        C391   1.397       .  A
C390        H395   1.084       .  S
C391        C392   1.407       .  A
C391       Br399   1.915       .  S
C392        C393   1.402       .  A
C393        C394   1.399       .  A
C393        H396   1.083       .  S
C394       Br400   1.918       .  S
C401        C402   1.421       .  A
C401        C406   1.411       .  A
C402        C403   1.397       .  A
C402       Br418   1.924       .  S
C403        C404   1.398       .  A
C403        H407   1.084       .  S
C404        C408   1.477       .  S
C404        C405   1.405       .  A
C405        C406   1.401       .  A
C405       Br417   1.919       .  S
C406        H409   1.083       .  S
C408        C410   1.403       .  A
C408        C414   1.410       .  A
C410        C411   1.399       .  A
C410        H415   1.084       .  S
C411        C412   1.407       .  A
C411       Br419   1.917       .  S
C412        C413   1.400       .  A
C413        C414   1.396       .  A
C413        H416   1.084       .  S
C414       Br420   1.920       .  S
C421        C422   1.411       .  A
C421        C426   1.403       .  A
C422        C423   1.399       .  A
C422       Br438   1.919       .  S
C423        C424   1.401       .  A
C423        H427   1.084       .  S
C424        C428   1.472       .  S
C424        C425   1.407       .  A
C425        C426   1.395       .  A
C425       Br437   1.920       .  S
C426        H429   1.084       .  S
C428        C430   1.400       .  A
C428        C434   1.408       .  A
C430        C431   1.396       .  A
C430        H435   1.083       .  S
C431        C432   1.409       .  A
C431       Br439   1.919   1_565  S
C432        C433   1.403       .  A
C433        C434   1.397       .  A
C433        H436   1.084       .  S
C434       Br440   1.919       .  S
C441        C442   1.413       .  A
C441        C446   1.408       .  A
C442        C443   1.394       .  A
C442       Br458   1.923       .  S
C443        C444   1.401       .  A
C443        H447   1.084       .  S
C444        C448   1.479       .  S
C444        C445   1.408       .  A
C445        C446   1.403       .  A
C445       Br457   1.918       .  S
C446        H449   1.083       .  S
C448        C450   1.403       .  A
C448        C454   1.411       .  A
C450        C451   1.395       .  A
C450        H455   1.084       .  S
C451        C452   1.406       .  A
C451       Br459   1.920       .  S
C452        C453   1.402       .  A
C453        C454   1.401       .  A
C453        H456   1.084       .  S
C454       Br460   1.917       .  S
C461        C462   1.407       .  A
C461        C466   1.402       .  A
C462        C463   1.397       .  A
C462       Br478   1.919       .  S
C463        C464   1.404       .  A
C463        H467   1.083       .  S
C464        C468   1.474       .  S
C464        C465   1.408       .  A
C465        C466   1.395       .  A
C465       Br477   1.920       .  S
C466        H469   1.083       .  S
C468        C470   1.402       .  A
C468        C474   1.408       .  A
C470        C471   1.395       .  A
C470        H475   1.084       .  S
C471        C472   1.409       .  A
C471       Br479   1.920       .  S
C472        C473   1.405       .  A
C473        C474   1.397       .  A
C473        H476   1.084       .  S
C474       Br480   1.920       .  S
C481        C482   1.421       .  A
C481        C486   1.408       .  A
C482        C483   1.397       .  A
C482       Br498   1.925       .  S
C483        C484   1.399       .  A
C483        H487   1.084       .  S
C484        C488   1.477       .  S
C484        C485   1.406       .  A
C485        C486   1.399       .  A
C485       Br497   1.918       .  S
C486        H489   1.083       .  S
C488        C490   1.400   1_556  A
C488        C494   1.410       .  A
C490        C491   1.394       .  A
C490        H495   1.084       .  S
C491        C492   1.410       .  A
C491       Br499   1.920       .  S
C492        C493   1.404   1_554  A
C493        C494   1.402       .  A
C493        H496   1.084       .  S
C494       Br500   1.916       .  S
C501        C502   1.407   1_554  A
C501        C506   1.401       .  A
C502        C503   1.398       .  A
C502       Br518   1.916       .  S
C503        C504   1.402       .  A
C503        H507   1.083       .  S
C504        C508   1.475       .  S
C504        C505   1.409       .  A
C505        C506   1.397   1_556  A
C505       Br517   1.919   1_556  S
C506        H509   1.083       .  S
C508        C510   1.398       .  A
C508        C514   1.405       .  A
C510        C511   1.399       .  A
C510        H515   1.084       .  S
C511        C512   1.422       .  A
C511       Br519   1.923       .  S
C512        C513   1.409       .  A
C513        C514   1.396       .  A
C513        H516   1.083   1_556  S
C514       Br520   1.920   1_556  S
C521        C522   1.415       .  A
C521        C836   1.408   1_455  A
C522        C523   1.403       .  A
C522       Br538   1.920       .  S
C523        H527   1.083       .  S
C524        C528   1.478       .  S
C524       C1145   1.404   1_545  A
C525       C1144   1.404   1_565  A
C525        C526   1.398       .  A
C525       Br537   1.918       .  S
C526        C831   1.408   1_565  A
C526        H529   1.083       .  S
C528        C840   1.401       .  A
C528        C534   1.405   1_645  A
C530        C838   1.401       .  A
C530        C531   1.403       .  A
C530        H535   1.084       .  S
C531        C532   1.417       .  A
C531       Br539   1.920       .  S
C532        C843   1.408       .  A
C533        C842   1.408   1_465  A
C533        C534   1.399       .  A
C533        H536   1.083       .  S
C534       Br540   1.918       .  S
C541        C542   1.411       .  A
C541        C856   1.405       .  A
C542        C543   1.399       .  A
C542       Br558   1.920       .  S
C543       C1164   1.403       .  A
C543        H547   1.084       .  S
C544        C548   1.479       .  S
C544       C1163   1.403       .  A
C545        C546   1.398       .  A
C545       Br557   1.920       .  S
C546        C851   1.405   1_455  A
C546        H549   1.084       .  S
C548        C860   1.404       .  A
C548        C554   1.409       .  A
C550        C858   1.404       .  A
C550        C551   1.400       .  A
C550        H555   1.083       .  S
C551       Br559   1.920       .  S
C552        C968   1.471       .  S
C552       C1173   1.402       .  A
C553       C1172   1.402       .  A
C553        C554   1.395       .  A
C553        H556   1.084       .  S
C554       Br560   1.920   1_655  S
C561        C562   1.417       .  A
C561        C566   1.406       .  A
C562        C563   1.398       .  A
C562       Br578   1.922       .  S
C563        C564   1.399       .  A
C563        H567   1.084       .  S
C564        C568   1.471       .  S
C564        C565   1.404       .  A
C565        C566   1.396       .  A
C565       Br577   1.919       .  S
C566        H569   1.084       .  S
C568        C570   1.401       .  A
C568        C574   1.405       .  A
C570        C571   1.399       .  A
C570        H575   1.083       .  S
C571        C572   1.412       .  A
C571       Br579   1.920       .  S
C572        C573   1.405       .  A
C573        C574   1.395       .  A
C573        H576   1.083       .  S
C574       Br580   1.919       .  S
C581        C582   1.420       .  A
C581        C586   1.412       .  A
C582        C583   1.394       .  A
C582       Br598   1.924       .  S
C583        C584   1.397       .  A
C583        H587   1.084       .  S
C584        C588   1.476       .  S
C584        C585   1.405       .  A
C585        C586   1.402       .  A
C585       Br597   1.920       .  S
C586        H589   1.083       .  S
C588        C590   1.404       .  A
C588        C594   1.409       .  A
C590        C591   1.398       .  A
C590        H595   1.083       .  S
C591        C592   1.407       .  A
C591       Br599   1.916       .  S
C592        C593   1.402       .  A
C593        C594   1.397       .  A
C593        H596   1.083       .  S
C594       Br600   1.920       .  S
C601        C602   1.409       .  A
C601        C606   1.402       .  A
C602        C603   1.398       .  A
C602       Br618   1.913       .  S
C603        C604   1.402       .  A
C603        H607   1.084       .  S
C604        C608   1.474       .  S
C604        C605   1.408       .  A
C605        C606   1.396       .  A
C605       Br617   1.920       .  S
C606        H609   1.084       .  S
C608        C610   1.399       .  A
C608        C614   1.406       .  A
C610        C611   1.395       .  A
C610        H615   1.084       .  S
C611        C612   1.416       .  A
C611       Br619   1.922       .  S
C612        C613   1.409       .  A
C613        C614   1.399       .  A
C613        H616   1.084       .  S
C614       Br620   1.919       .  S
C621        N622   1.359       .  A
C621        N626   1.357       .  A
C621        C902   1.469       .  S
N622        C623   1.359       .  A
C623        N624   1.356       .  A
C623        C911   1.471       .  S
N624        C625   1.355       .  A
C625        N626   1.357       .  A
C625        C871   1.480       .  S
Zn627       O631   1.956       .  S
Zn627       O632   2.008   1_565  S
Zn627       O946   2.036       .  S
Zn627       O643   2.032       .  S
Zn628       O631   1.963   1_545  S
Zn628       O633   2.029   1_556  S
Zn628       O635   2.023       .  S
Zn629       O941   1.949       .  S
Zn629       O634   1.991       .  S
Zn629       O637   2.000   1_556  S
Zn630       O948   2.009       .  S
Zn630       O641   2.004   1_565  S
Zn630       O642   2.016   1_565  S
O631       Zn939   1.949       .  S
O632        C644   1.272       .  A
O633        C645   1.274   1_545  A
O634        C646   1.269       .  A
O635        C644   1.275       .  A
O636       Zn937   2.036       .  S
O636        C646   1.276       .  A
O637        C955   1.271       .  A
O638       Zn940   2.009       .  S
O638        C647   1.272       .  A
O639        C648   1.276       .  A
O640        C647   1.272       .  A
O641        C648   1.270       .  A
O643        C649   1.274       .  A
C644        C891   1.491       .  S
C645        C851   1.476       .  S
C645        O947   1.271       .  A
C646        C791   1.488       .  S
C647        C922   1.482       .  S
C648        C822   1.490       .  S
C649        C842   1.488   1_565  S
C650        N651   1.361       .  A
C650        N655   1.355       .  A
C650        C811   1.464       .  S
N651        C652   1.360       .  A
C652        N653   1.356       .  A
C652        C802   1.471       .  S
N653        C654   1.353       .  A
C654        N655   1.352       .  A
C654        C771   1.466       .  S
C656        N657   1.356       .  A
C656        N661   1.360       .  A
C656        C742   1.465       .  S
N657        C968   1.354       .  A
C658        N967   1.354       .  A
N659        C660   1.357       .  A
C660        C762   1.466       .  S
Zn662       O666   1.945       .  S
Zn662       O667   1.998       .  S
Zn662       O671   2.003       .  S
Zn662       O678   2.001       .  S
Zn663       O666   1.952       .  S
Zn663       O668   2.029       .  S
Zn663       O670   2.020       .  S
Zn663       O674   2.009       .  S
Zn664       O666   1.948       .  S
Zn664       O669   2.011       .  S
Zn664       O672   2.001       .  S
Zn664       O675   1.998       .  S
Zn665       O666   1.957       .  S
Zn665       O673   2.007       .  S
Zn665       O676   2.031       .  S
Zn665       O677   2.016       .  S
O667        C679   1.272       .  A
O668        C680   1.275       .  A
O669        C681   1.272       .  A
O670        C679   1.274       .  A
O671        C681   1.270       .  A
O672        C680   1.272       .  A
O673        C682   1.272       .  A
O674        C683   1.271       .  A
O675        C682   1.272       .  A
O676        C683   1.276       .  A
O677        C684   1.274       .  A
O678        C684   1.271       .  A
C679        C882   1.475       .  S
C680        C751   1.480       .  S
C681        C691   1.482       .  S
C682        C782   1.470       .  S
C683        C711   1.493       .  S
C684        C731   1.472       .  S
C685        N686   1.356       .  A
C685        C722   1.467       .  S
C687        N688   1.360       .  A
C687        C831   1.486       .  S
N688        C689   1.361       .  A
C689       N1000   1.357       .  A
C689        C702   1.468       .  S
N690        C999   1.357       .  A
C691        C692   1.416       .  A
C691        C696   1.410       .  A
C692        C693   1.393       .  A
C692       Br708   1.923       .  S
C693        C694   1.397       .  A
C693        H697   1.084       .  S
C694        C698   1.471       .  S
C694        C695   1.404       .  A
C695        C696   1.401       .  A
C695       Br707   1.917       .  S
C696        H699   1.084       .  S
C698        C700   1.400       .  A
C698        C704   1.408       .  A
C700        C701   1.397       .  A
C700        H705   1.084       .  S
C701        C702   1.407       .  A
C701       Br709   1.915       .  S
C702        C703   1.402       .  A
C703        C704   1.399       .  A
C703        H706   1.083       .  S
C704       Br710   1.918       .  S
C711        C712   1.421       .  A
C711        C716   1.411       .  A
C712        C713   1.397       .  A
C712       Br728   1.924       .  S
C713        C714   1.398       .  A
C713        H717   1.084       .  S
C714        C718   1.477       .  S
C714        C715   1.405       .  A
C715        C716   1.401       .  A
C715       Br727   1.919       .  S
C716        H719   1.083       .  S
C718        C720   1.403       .  A
C718        C724   1.410       .  A
C720        C721   1.399       .  A
C720        H725   1.084       .  S
C721        C722   1.407       .  A
C721       Br729   1.917   1_655  S
C722        C723   1.400       .  A
C723        C724   1.396       .  A
C723        H726   1.084       .  S
C724       Br730   1.920       .  S
C731        C732   1.411       .  A
C731        C736   1.403       .  A
C732        C733   1.399       .  A
C732       Br748   1.919       .  S
C733        C734   1.401       .  A
C733        H737   1.084       .  S
C734        C738   1.472       .  S
C734        C735   1.407       .  A
C735        C736   1.395       .  A
C735       Br747   1.920       .  S
C736        H739   1.084       .  S
C738        C740   1.400       .  A
C738        C744   1.408       .  A
C740        C741   1.396       .  A
C740        H745   1.083       .  S
C741        C742   1.409       .  A
C741       Br749   1.919       .  S
C742        C743   1.403       .  A
C743        C744   1.397       .  A
C743        H746   1.084       .  S
C744       Br750   1.919       .  S
C751        C752   1.413       .  A
C751        C756   1.408       .  A
C752        C753   1.394       .  A
C752       Br768   1.923       .  S
C753        C754   1.401       .  A
C753        H757   1.084       .  S
C754        C758   1.479       .  S
C754        C755   1.408       .  A
C755        C756   1.403       .  A
C755       Br767   1.918       .  S
C756        H759   1.083       .  S
C758        C760   1.403       .  A
C758        C764   1.411       .  A
C760        C761   1.395       .  A
C760        H765   1.084       .  S
C761        C762   1.406       .  A
C761       Br769   1.920   1_655  S
C762        C763   1.402       .  A
C763        C764   1.401       .  A
C763        H766   1.084       .  S
C764       Br770   1.917       .  S
C771        C772   1.407       .  A
C771        C776   1.402       .  A
C772        C773   1.397       .  A
C772       Br788   1.919       .  S
C773        C774   1.404       .  A
C773        H777   1.083       .  S
C774        C778   1.474       .  S
C774        C775   1.408       .  A
C775        C776   1.395       .  A
C775       Br787   1.920       .  S
C776        H779   1.083       .  S
C778        C780   1.402       .  A
C778        C784   1.408       .  A
C780        C781   1.395       .  A
C780        H785   1.084       .  S
C781        C782   1.409       .  A
C781       Br789   1.920       .  S
C782        C783   1.405       .  A
C783        C784   1.397       .  A
C783        H786   1.084       .  S
C784       Br790   1.920       .  S
C791        C792   1.421       .  A
C791        C796   1.408       .  A
C792        C793   1.397       .  A
C792       Br808   1.925       .  S
C793        C794   1.399       .  A
C793        H797   1.084       .  S
C794        C798   1.477       .  S
C794        C795   1.406       .  A
C795        C796   1.399       .  A
C795       Br807   1.918       .  S
C796        H799   1.083       .  S
C798        C800   1.400   1_556  A
C798        C804   1.410       .  A
C800        C801   1.394       .  A
C800        H805   1.084       .  S
C801        C802   1.410       .  A
C801       Br809   1.920       .  S
C802        C803   1.404   1_554  A
C803        C804   1.402       .  A
C803        H806   1.084       .  S
C804       Br810   1.916       .  S
C811        C812   1.407   1_554  A
C811        C816   1.401       .  A
C812        C813   1.398       .  A
C812       Br828   1.916       .  S
C813        C814   1.402       .  A
C813        H817   1.083       .  S
C814        C818   1.475       .  S
C814        C815   1.409       .  A
C815        C816   1.397   1_556  A
C815       Br827   1.919   1_556  S
C816        H819   1.083       .  S
C818        C820   1.398       .  A
C818        C824   1.405       .  A
C820        C821   1.399       .  A
C820        H825   1.084       .  S
C821        C822   1.422       .  A
C821       Br829   1.923       .  S
C822        C823   1.409       .  A
C823        C824   1.396       .  A
C823        H826   1.083   1_556  S
C824       Br830   1.920   1_556  S
C831        C832   1.415       .  A
C832        C833   1.403       .  A
C832       Br848   1.920       .  S
C833       C1144   1.402       .  A
C833        H837   1.083       .  S
C834        C838   1.478       .  S
C834       C1143   1.402       .  A
C835        C836   1.398       .  A
C835       Br847   1.918       .  S
C836        H839   1.083       .  S
C838        C844   1.405       .  A
C840        C841   1.403       .  A
C840        H845   1.084       .  S
C841        C842   1.417       .  A
C841       Br849   1.920       .  S
C843        C844   1.399       .  A
C843        H846   1.083       .  S
C844       Br850   1.918       .  S
C851        C852   1.411   1_565  A
C852        C853   1.399       .  A
C852       Br868   1.920       .  S
C853        H857   1.084       .  S
C854        C858   1.479       .  S
C854       C1165   1.409       .  A
C855       C1164   1.409       .  A
C855        C856   1.398       .  A
C855       Br867   1.920       .  S
C856        H859   1.084       .  S
C858        C864   1.409   1_565  A
C860        C861   1.400       .  A
C860        H865   1.083       .  S
C861       C1172   1.410       .  A
C861       Br869   1.920       .  S
C862       C1171   1.410       .  A
C863        C864   1.395       .  A
C863        H866   1.084       .  S
C864       Br870   1.920       .  S
C871        C872   1.417       .  A
C871        C876   1.406       .  A
C872        C873   1.398       .  A
C872       Br888   1.922       .  S
C873        C874   1.399       .  A
C873        H877   1.084       .  S
C874        C878   1.471       .  S
C874        C875   1.404       .  A
C875        C876   1.396       .  A
C875       Br887   1.919       .  S
C876        H879   1.084       .  S
C878        C880   1.401       .  A
C878        C884   1.405       .  A
C880        C881   1.399       .  A
C880        H885   1.083       .  S
C881        C882   1.412       .  A
C881       Br889   1.920       .  S
C882        C883   1.405       .  A
C883        C884   1.395       .  A
C883        H886   1.083       .  S
C884       Br890   1.919       .  S
C891        C892   1.420       .  A
C891        C896   1.412       .  A
C892        C893   1.394       .  A
C892       Br908   1.924       .  S
C893        C894   1.397       .  A
C893        H897   1.084       .  S
C894        C898   1.476       .  S
C894        C895   1.405       .  A
C895        C896   1.402       .  A
C895       Br907   1.920       .  S
C896        H899   1.083       .  S
C898        C900   1.404       .  A
C898        C904   1.409       .  A
C900        C901   1.398       .  A
C900        H905   1.083       .  S
C901        C902   1.407       .  A
C901       Br909   1.916       .  S
C902        C903   1.402       .  A
C903        C904   1.397       .  A
C903        H906   1.083       .  S
C904       Br910   1.920       .  S
C911        C912   1.409       .  A
C911        C916   1.402       .  A
C912        C913   1.398       .  A
C912       Br928   1.913       .  S
C913        C914   1.402       .  A
C913        H917   1.084       .  S
C914        C918   1.474       .  S
C914        C915   1.408       .  A
C915        C916   1.396       .  A
C915       Br927   1.920       .  S
C916        H919   1.084       .  S
C918        C920   1.399       .  A
C918        C924   1.406       .  A
C920        C921   1.395       .  A
C920        H925   1.084       .  S
C921        C922   1.416       .  A
C921       Br929   1.922       .  S
C922        C923   1.409       .  A
C923        C924   1.399       .  A
C923        H926   1.084       .  S
C924       Br930   1.919       .  S
C931        N932   1.359       .  A
C931        N936   1.357       .  A
C931       C1212   1.469       .  S
N932        C933   1.359       .  A
C933        N934   1.356       .  A
C933       C1221   1.471       .  S
N934        C935   1.355       .  A
C935        N936   1.357       .  A
C935       C1181   1.480       .  S
Zn937       O941   1.956       .  S
Zn937       O942   2.008       .  S
Zn937       O953   2.032       .  S
Zn938       O941   1.963       .  S
Zn938       O943   2.029   1_556  S
Zn938       O945   2.023       .  S
Zn939       O944   1.991       .  S
Zn939       O947   2.000   1_556  S
Zn940       O951   2.004       .  S
Zn940       O952   2.016       .  S
O942        C954   1.272       .  A
O943        C955   1.274       .  A
O944        C956   1.269       .  A
O945        C954   1.275       .  A
O946        C956   1.276       .  A
O948        C957   1.272       .  A
O949        C958   1.276       .  A
O950        C957   1.272       .  A
O951        C958   1.270       .  A
O953        C959   1.274       .  A
C954       C1201   1.491       .  S
C955       C1161   1.476       .  S
C956       C1101   1.488       .  S
C957       C1232   1.482       .  S
C958       C1132   1.490       .  S
C959       C1152   1.488       .  S
C960        N961   1.361       .  A
C960        N965   1.355       .  A
C960       C1121   1.464       .  S
N961        C962   1.360       .  A
C962        N963   1.356       .  A
C962       C1112   1.471       .  S
N963        C964   1.353       .  A
C964        N965   1.352       .  A
C964       C1081   1.466       .  S
C966        N967   1.356       .  A
C966        N971   1.360       .  A
C966       C1052   1.465       .  S
N969        C970   1.357       .  A
C970       C1072   1.466       .  S
Zn972       O976   1.945       .  S
Zn972       O977   1.998       .  S
Zn972       O981   2.003       .  S
Zn972       O988   2.001       .  S
Zn973       O976   1.952       .  S
Zn973       O978   2.029       .  S
Zn973       O980   2.020       .  S
Zn973       O984   2.009       .  S
Zn974       O976   1.948       .  S
Zn974       O979   2.011       .  S
Zn974       O982   2.001       .  S
Zn974       O985   1.998       .  S
Zn975       O976   1.957       .  S
Zn975       O983   2.007       .  S
Zn975       O986   2.031       .  S
Zn975       O987   2.016       .  S
O977        C989   1.272       .  A
O978        C990   1.275       .  A
O979        C991   1.272       .  A
O980        C989   1.274       .  A
O981        C991   1.270       .  A
O982        C990   1.272       .  A
O983        C992   1.272       .  A
O984        C993   1.271       .  A
O985        C992   1.272       .  A
O986        C993   1.276       .  A
O987        C994   1.274       .  A
O988        C994   1.271       .  A
C989       C1192   1.475       .  S
C990       C1061   1.480       .  S
C991       C1001   1.482       .  S
C992       C1092   1.470       .  S
C993       C1021   1.493       .  S
C994       C1041   1.472       .  S
C995        N996   1.356       .  A
C995       C1032   1.467       .  S
C997        N998   1.360       .  A
C997       C1141   1.486       .  S
N998        C999   1.361       .  A
C999       C1012   1.468       .  S
C1001      C1002   1.416       .  A
C1001      C1006   1.410       .  A
C1002      C1003   1.393       .  A
C1002     Br1018   1.923       .  S
C1003      C1004   1.397       .  A
C1003      H1007   1.084       .  S
C1004      C1008   1.471       .  S
C1004      C1005   1.404       .  A
C1005      C1006   1.401       .  A
C1005     Br1017   1.917       .  S
C1006      H1009   1.084       .  S
C1008      C1010   1.400       .  A
C1008      C1014   1.408       .  A
C1010      C1011   1.397       .  A
C1010      H1015   1.084       .  S
C1011      C1012   1.407       .  A
C1011     Br1019   1.915       .  S
C1012      C1013   1.402       .  A
C1013      C1014   1.399       .  A
C1013      H1016   1.083       .  S
C1014     Br1020   1.918       .  S
C1021      C1022   1.421       .  A
C1021      C1026   1.411       .  A
C1022      C1023   1.397       .  A
C1022     Br1038   1.924       .  S
C1023      C1024   1.398       .  A
C1023      H1027   1.084       .  S
C1024      C1028   1.477       .  S
C1024      C1025   1.405       .  A
C1025      C1026   1.401       .  A
C1025     Br1037   1.919       .  S
C1026      H1029   1.083       .  S
C1028      C1030   1.403       .  A
C1028      C1034   1.410       .  A
C1030      C1031   1.399       .  A
C1030      H1035   1.084       .  S
C1031      C1032   1.407       .  A
C1031     Br1039   1.917   1_655  S
C1032      C1033   1.400       .  A
C1033      C1034   1.396       .  A
C1033      H1036   1.084       .  S
C1034     Br1040   1.920       .  S
C1041      C1042   1.411       .  A
C1041      C1046   1.403       .  A
C1042      C1043   1.399       .  A
C1042     Br1058   1.919       .  S
C1043      C1044   1.401       .  A
C1043      H1047   1.084       .  S
C1044      C1048   1.472       .  S
C1044      C1045   1.407       .  A
C1045      C1046   1.395       .  A
C1045     Br1057   1.920       .  S
C1046      H1049   1.084       .  S
C1048      C1050   1.400       .  A
C1048      C1054   1.408       .  A
C1050      C1051   1.396       .  A
C1050      H1055   1.083       .  S
C1051      C1052   1.409       .  A
C1051     Br1059   1.919   1_565  S
C1052      C1053   1.403       .  A
C1053      C1054   1.397       .  A
C1053      H1056   1.084       .  S
C1054     Br1060   1.919       .  S
C1061      C1062   1.413       .  A
C1061      C1066   1.408       .  A
C1062      C1063   1.394       .  A
C1062     Br1078   1.923       .  S
C1063      C1064   1.401       .  A
C1063      H1067   1.084       .  S
C1064      C1068   1.479       .  S
C1064      C1065   1.408       .  A
C1065      C1066   1.403       .  A
C1065     Br1077   1.918       .  S
C1066      H1069   1.083       .  S
C1068      C1070   1.403       .  A
C1068      C1074   1.411       .  A
C1070      C1071   1.395       .  A
C1070      H1075   1.084       .  S
C1071      C1072   1.406       .  A
C1071     Br1079   1.920   1_655  S
C1072      C1073   1.402       .  A
C1073      C1074   1.401       .  A
C1073      H1076   1.084       .  S
C1074     Br1080   1.917       .  S
C1081      C1082   1.407       .  A
C1081      C1086   1.402       .  A
C1082      C1083   1.397       .  A
C1082     Br1098   1.919       .  S
C1083      C1084   1.404       .  A
C1083      H1087   1.083       .  S
C1084      C1088   1.474       .  S
C1084      C1085   1.408       .  A
C1085      C1086   1.395       .  A
C1085     Br1097   1.920       .  S
C1086      H1089   1.083       .  S
C1088      C1090   1.402       .  A
C1088      C1094   1.408       .  A
C1090      C1091   1.395       .  A
C1090      H1095   1.084       .  S
C1091      C1092   1.409       .  A
C1091     Br1099   1.920       .  S
C1092      C1093   1.405       .  A
C1093      C1094   1.397       .  A
C1093      H1096   1.084       .  S
C1094     Br1100   1.920       .  S
C1101      C1102   1.421       .  A
C1101      C1106   1.408       .  A
C1102      C1103   1.397       .  A
C1102     Br1118   1.925       .  S
C1103      C1104   1.399       .  A
C1103      H1107   1.084       .  S
C1104      C1108   1.477       .  S
C1104      C1105   1.406       .  A
C1105      C1106   1.399       .  A
C1105     Br1117   1.918       .  S
C1106      H1109   1.083       .  S
C1108      C1110   1.400   1_556  A
C1108      C1114   1.410       .  A
C1110      C1111   1.394       .  A
C1110      H1115   1.084       .  S
C1111      C1112   1.410       .  A
C1111     Br1119   1.920       .  S
C1112      C1113   1.404   1_554  A
C1113      C1114   1.402       .  A
C1113      H1116   1.084       .  S
C1114     Br1120   1.916       .  S
C1121      C1122   1.407   1_554  A
C1121      C1126   1.401       .  A
C1122      C1123   1.398       .  A
C1122     Br1138   1.916       .  S
C1123      C1124   1.402       .  A
C1123      H1127   1.083       .  S
C1124      C1128   1.475       .  S
C1124      C1125   1.409       .  A
C1125      C1126   1.397   1_556  A
C1125     Br1137   1.919   1_556  S
C1126      H1129   1.083       .  S
C1128      C1130   1.398       .  A
C1128      C1134   1.405       .  A
C1130      C1131   1.399       .  A
C1130      H1135   1.084       .  S
C1131      C1132   1.422       .  A
C1131     Br1139   1.923       .  S
C1132      C1133   1.409       .  A
C1133      C1134   1.396       .  A
C1133      H1136   1.083   1_556  S
C1134     Br1140   1.920   1_556  S
C1141      C1142   1.415       .  A
C1142      C1143   1.403       .  A
C1142     Br1158   1.920       .  S
C1143      H1147   1.083       .  S
C1144      C1148   1.478       .  S
C1145      C1146   1.398       .  A
C1145     Br1157   1.918       .  S
C1146      H1149   1.083       .  S
C1148      C1154   1.405   1_545  A
C1150      C1151   1.403       .  A
C1150      H1155   1.084       .  S
C1151      C1152   1.417       .  A
C1151     Br1159   1.920       .  S
C1153      C1154   1.399       .  A
C1153      H1156   1.083       .  S
C1154     Br1160   1.918       .  S
C1161      C1162   1.411       .  A
C1162      C1163   1.399       .  A
C1162     Br1178   1.920       .  S
C1163      H1167   1.084       .  S
C1164      C1168   1.479       .  S
C1165      C1166   1.398       .  A
C1165     Br1177   1.920       .  S
C1166      H1169   1.084       .  S
C1168      C1174   1.409       .  A
C1170      C1171   1.400       .  A
C1170      H1175   1.083       .  S
C1171     Br1179   1.920       .  S
C1173      C1174   1.395       .  A
C1173      H1176   1.084       .  S
C1174     Br1180   1.920       .  S
C1181      C1182   1.417       .  A
C1181      C1186   1.407       .  A
C1182      C1183   1.398       .  A
C1182     Br1198   1.922       .  S
C1183      C1184   1.399       .  A
C1183      H1187   1.084       .  S
C1184      C1188   1.471       .  S
C1184      C1185   1.404       .  A
C1185      C1186   1.396       .  A
C1185     Br1197   1.919       .  S
C1186      H1189   1.084       .  S
C1188      C1190   1.401       .  A
C1188      C1194   1.405       .  A
C1190      C1191   1.399       .  A
C1190      H1195   1.083       .  S
C1191      C1192   1.412       .  A
C1191     Br1199   1.920       .  S
C1192      C1193   1.405       .  A
C1193      C1194   1.395       .  A
C1193      H1196   1.083       .  S
C1194     Br1200   1.919       .  S
C1201      C1202   1.420       .  A
C1201      C1206   1.412       .  A
C1202      C1203   1.394       .  A
C1202     Br1218   1.924       .  S
C1203      C1204   1.397       .  A
C1203      H1207   1.084       .  S
C1204      C1208   1.476       .  S
C1204      C1205   1.405       .  A
C1205      C1206   1.402       .  A
C1205     Br1217   1.920       .  S
C1206      H1209   1.083       .  S
C1208      C1210   1.404       .  A
C1208      C1214   1.409       .  A
C1210      C1211   1.398       .  A
C1210      H1215   1.083       .  S
C1211      C1212   1.407       .  A
C1211     Br1219   1.916       .  S
C1212      C1213   1.402       .  A
C1213      C1214   1.397       .  A
C1213      H1216   1.083       .  S
C1214     Br1220   1.920       .  S
C1221      C1222   1.409       .  A
C1221      C1226   1.402       .  A
C1222      C1223   1.398       .  A
C1222     Br1238   1.913       .  S
C1223      C1224   1.402       .  A
C1223      H1227   1.084       .  S
C1224      C1228   1.474       .  S
C1224      C1225   1.408       .  A
C1225      C1226   1.396       .  A
C1225     Br1237   1.920       .  S
C1226      H1229   1.084       .  S
C1228      C1230   1.399       .  A
C1228      C1234   1.406       .  A
C1230      C1231   1.395       .  A
C1230      H1235   1.084       .  S
C1231      C1232   1.416       .  A
C1231     Br1239   1.922       .  S
C1232      C1233   1.409       .  A
C1233      C1234   1.399       .  A
C1233      H1236   1.084       .  S
C1234     Br1240   1.919       .  S
