geometry optimzed in LAMMPS
_audit_creation_date              2020-11-30 
_audit_creation_method            'lammps2cif' 
_symmetry_space_group_name_H-M    'P1' 
_symmetry_Int_Tables_number       1 
_symmetry_cell_setting            triclinic 
loop_ 
_symmetry_equiv_pos_as_xyz 
  x,y,z 
_cell_length_a                    31.43510471462498 
_cell_length_b                    35.43182482069319 
_cell_length_c                    39.88106828840874 
_cell_angle_alpha                 89.89289186953731 
_cell_angle_beta                  89.99992621539056 
_cell_angle_gamma                 89.99971332603599 
loop_ 
_atom_site_label 
_atom_site_type_symbol 
_atom_site_fract_x 
_atom_site_fract_y 
_atom_site_fract_z 
_atom_site_charge 
C1          C  0.03828804  0.63365354  0.49921570     0.04760
C2          C  0.99994708  0.65325613  0.49973789    -0.11390
C3          C  0.96159011  0.63367464  0.50036832     0.02260
C4          C  0.96139336  0.59412523  0.00073491    -0.09920
C5          C  0.99992495  0.57313328  0.99998029     0.04750
C6          C  0.03845942  0.59411335  0.99909119    -0.09340
H7          H  0.99995962  0.68388788  0.49965233     0.10340
H8          H  0.93067958  0.58075044  0.00171308     0.07870
H9          H  0.06917421  0.58074344  0.99818873     0.07720
C10         C  0.03833634  0.46970024  0.00087033     0.04760
C11         C  0.03848462  0.50924073  0.00100339    -0.11390
C12         C  0.99993774  0.53020376  0.00011502     0.02260
C13         C  0.96141855  0.50919474  0.99935494    -0.09920
C14         C  0.96163838  0.46964524  0.99971295     0.04750
C15         C  0.00000658  0.45008086  0.00034211    -0.09340
H16         H  0.06919159  0.52262419  0.00190938     0.10340
H17         H  0.93069713  0.52255596  0.99837661     0.07870
H18         H  0.00003672  0.41944911  0.00041938     0.07720
Zr19       Zr  0.66597989  0.80492011  0.49982622     2.17510
O20         O  0.60215915  0.76584525  0.49757774    -0.49700
O21         O  0.62993924  0.86544740  0.50010461    -0.72910
O22         O  0.63044131  0.80252515  0.05388445    -0.79690
O23         O  0.68036373  0.79927448  0.40476809    -0.81440
O24         O  0.68047918  0.80126184  0.09519356    -0.77060
O25         O  0.63024203  0.80088443  0.44605711    -0.88700
O26         O  0.67971371  0.91206219  0.50052317    -0.74660
O27         O  0.70747581  0.84397206  0.03555618    -0.84150
O28         O  0.70753321  0.84380099  0.46382578    -0.83840
O29         O  0.70700931  0.76205148  0.03349792    -0.70600
O30         O  0.70748122  0.76224949  0.46654829    -0.82730
Zr31       Zr  0.83411814  0.79867279  0.49992334     2.26420
Zr32       Zr  0.75000021  0.80182248  0.06834252     2.06270
Zr33       Zr  0.75009843  0.80172409  0.43126179     2.10050
Zr34       Zr  0.74938547  0.88234153  0.49950092     1.78760
O35         O  0.75056252  0.75042599  0.39075268    -0.91530
O36         O  0.75151093  0.92428086  0.04779422    -0.39340
O37         O  0.79287270  0.84128711  0.46628056    -0.75980
O38         O  0.79273151  0.84152843  0.03318976    -0.94660
O39         O  0.79255091  0.75978193  0.03580824    -0.87970
O40         O  0.79229099  0.75977367  0.46426264    -0.90810
C41         C  0.64119987  0.90020400  0.50047520     1.02940
C42         C  0.64174530  0.79931615  0.41523410     1.15870
C43         C  0.64188529  0.80146683  0.08473364     1.06650
O44         O  0.75112683  0.85161003  0.11032950    -0.92960
O45         O  0.81959779  0.80294050  0.09508580    -0.88710
O46         O  0.86976093  0.79961195  0.05392456    -0.81850
C47         C  0.85822997  0.80163124  0.08471859     1.13290
O48         O  0.68785730  0.68060304  0.50054039    -0.94940
Zr49       Zr  0.75054586  0.72116370  0.50023658     1.88940
O50         O  0.87015206  0.73809891  0.50021113    -0.71590
O51         O  0.75105089  0.75041337  0.10896375    -0.50850
O52         O  0.75131745  0.68221549  0.05064223    -0.95530
O53         O  0.74919558  0.67742934  0.45310347    -0.52750
O54         O  0.82028985  0.69149357  0.50030396    -0.72100
C55         C  0.85882564  0.70333515  0.50035501     1.00240
O56         O  0.89633465  0.84000450  0.49995757    -0.60920
O57         O  0.75089165  0.85184396  0.38936616    -0.55730
O58         O  0.86993842  0.80084739  0.44603101    -0.92410
O59         O  0.81982743  0.80387381  0.40478867    -0.90950
O60         O  0.74876092  0.92263765  0.44998117    -0.91190
O61         O  0.80996613  0.92515777  0.49771145    -0.89980
C62         C  0.85844395  0.80297263  0.41522540     1.19080
H63         H  0.68975562  0.85914595  0.44950599     0.35030
H64         H  0.81126885  0.85689397  0.04683042     0.45880
H65         H  0.81005470  0.74446512  0.44995788     0.39400
H66         H  0.68835022  0.74670196  0.04709940     0.35890
H67         H  0.74429677  0.94949462  0.03867538     0.27670
H68         H  0.74516114  0.76265302  0.13077482     0.33610
H69         H  0.76419300  0.65800743  0.04355540     0.39520
H70         H  0.73759315  0.94715845  0.45796253     0.33980
H71         H  0.74547573  0.83884946  0.36782741     0.32860
H72         H  0.75289166  0.76308943  0.36867774     0.34540
H73         H  0.76132476  0.65365266  0.46202316     0.33510
H74         H  0.83401894  0.91026760  0.00677388     0.37500
H75         H  0.89186692  0.85759986  0.48096162     0.30240
H76         H  0.57879561  0.78202308  0.00597773     0.34470
H77         H  0.69857361  0.65465031  0.00424151     0.37320
H78         H  0.72473279  0.86665401  0.39356123     0.29930
H79         H  0.89306767  0.85624792  0.01996687     0.42800
H80         H  0.72498954  0.86646568  0.10611701     0.32860
H81         H  0.72639226  0.91712015  0.06135551     0.40470
H82         H  0.77099681  0.68691191  0.43729269     0.32330
H83         H  0.72519267  0.73542308  0.10415132     0.32390
H84         H  0.60616147  0.74632302  0.01509760     0.32650
C85         C  0.50003184  0.79589620  0.30114177     0.04760
C86         C  0.46136295  0.79685283  0.31869184    -0.11390
C87         C  0.46137757  0.79771167  0.35381054     0.02260
C88         C  0.49997544  0.79752893  0.37129779    -0.09920
C89         C  0.53860169  0.79658848  0.35387079     0.04750
C90         C  0.53867244  0.79577203  0.31875147    -0.09340
H91         H  0.43148147  0.79707938  0.30510407     0.10340
H92         H  0.49995642  0.79828516  0.39849464     0.07870
H93         H  0.56858059  0.79518684  0.30520973     0.07720
Zr94       Zr  0.16599148  0.79838041  0.50001883     2.17510
O95         O  0.10217588  0.83746036  0.00228502    -0.49700
O96         O  0.12995752  0.73785517  0.49966490    -0.72910
O97         O  0.13045026  0.80077833  0.44596397    -0.79690
O98         O  0.18036146  0.80398290  0.09507869    -0.81440
O99         O  0.18048978  0.80202032  0.40465543    -0.77060
O100        O  0.13024302  0.80235240  0.05378813    -0.88700
O101        O  0.17973500  0.69124292  0.49921549    -0.74660
O102        O  0.20749558  0.75933582  0.46428919    -0.84150
O103        O  0.20754302  0.75949427  0.03601664    -0.83840
O104        O  0.20701565  0.84125521  0.46635074    -0.70600
O105        O  0.20748303  0.84105095  0.03330311    -0.82730
Zr106      Zr  0.33412801  0.80463928  0.49992783     2.26420
Zr107      Zr  0.25001283  0.80148992  0.43150572     2.06270
Zr108      Zr  0.25010025  0.80157325  0.06858649     2.10050
Zr109      Zr  0.24940413  0.72096280  0.50034029     1.78760
O110        O  0.25055559  0.85288970  0.10907732    -0.91530
O111        O  0.25162534  0.67901823  0.45205357    -0.39340
O112        O  0.29288186  0.76201941  0.03356489    -0.75980
O113        O  0.29274592  0.76178362  0.46665781    -0.94660
O114        O  0.29255933  0.84353089  0.46404352    -0.87970
O115        O  0.29229372  0.84353034  0.03559086    -0.90810
C116        C  0.14122076  0.70310061  0.49925001     1.02940
C117        C  0.14174322  0.80391733  0.08461206     1.15870
C118        C  0.14189528  0.80181867  0.41511481     1.06650
O119        O  0.25113922  0.75172883  0.38949392    -0.92960
O120        O  0.31960974  0.80033800  0.40476487    -0.88710
O121        O  0.36977176  0.80367000  0.44592665    -0.81850
C122        C  0.35824158  0.80163795  0.41513305     1.13290
O123        O  0.18784811  0.92269062  0.99934293    -0.94940
Zr124      Zr  0.25054660  0.88214127  0.49961778     1.88940
O125        O  0.37015446  0.86521943  0.49962732    -0.71590
O126        O  0.25105900  0.85292036  0.39090627    -0.50850
O127        O  0.25127656  0.92109513  0.44921519    -0.95530
O128        O  0.24922458  0.92587792  0.04674991    -0.52750
O129        O  0.32028559  0.91181952  0.49952757    -0.72100
C130        C  0.35882326  0.89998263  0.49947637     1.00240
O131        O  0.39635285  0.76331526  0.99990759    -0.60920
O132        O  0.25090117  0.75147340  0.11050092    -0.55730
O133        O  0.36994025  0.80245488  0.05382398    -0.92410
O134        O  0.31982588  0.79939825  0.09506219    -0.90830
O135        O  0.24869083  0.68066597  0.04985888    -0.91190
O136        O  0.30999250  0.67815764  0.00218673    -0.89980
C137        C  0.35844312  0.80030724  0.08462792     1.19080
H138        H  0.18976402  0.74414283  0.05032983     0.35030
H139        H  0.31128469  0.74641837  0.45301799     0.45880
H140        H  0.31005665  0.85883807  0.04989675     0.39400
H141        H  0.18835494  0.85660375  0.45274965     0.35890
H142        H  0.24438453  0.65380688  0.46116441     0.27670
H143        H  0.24520857  0.84068575  0.36908644     0.33610
H144        H  0.26415054  0.94530479  0.45629914     0.39520
H145        H  0.23753279  0.65614696  0.04186516     0.33980
H146        H  0.24543093  0.76447053  0.13202995     0.32860
H147        H  0.25288824  0.84023619  0.13115651     0.34540
H148        H  0.26133307  0.94965861  0.03782133     0.33510
H149        H  0.33403340  0.69302474  0.49307479     0.37500
H150        H  0.39188337  0.74571984  0.01890325     0.30240
H151        H  0.07880912  0.82128481  0.49388740     0.34470
H152        H  0.19855512  0.94864558  0.49563742     0.37320
H153        H  0.22477162  0.73663070  0.10628420     0.29930
H154        H  0.39309589  0.74706921  0.47989899     0.42800
H155        H  0.22502954  0.73684224  0.39372603     0.32860
H156        H  0.22653838  0.68618341  0.43845772     0.40470
H157        H  0.27104641  0.91640502  0.06254758     0.32330
H158        H  0.22517822  0.86788594  0.39570468     0.32390
H159        H  0.10617479  0.85698355  0.48476552     0.32650
C160        C  0.00012076  0.80715836  0.30110787     0.04760
C161        C  0.96147308  0.80695961  0.31870829    -0.11390
C162        C  0.96154090  0.80604339  0.35382849     0.02260
C163        C  0.00016205  0.80536479  0.37126610    -0.09920
C164        C  0.03876150  0.80550989  0.35378972     0.04750
C165        C  0.03878905  0.80644357  0.31867002    -0.09340
H166        H  0.93156509  0.80735549  0.30515964     0.10340
H167        H  0.00017764  0.80453994  0.39846457     0.07870
H168        H  0.06867879  0.80645129  0.30509232     0.07720
C169        C  0.50011895  0.79599510  0.19874359     0.04760
C170        C  0.53878644  0.79672768  0.18118059    -0.11390
C171        C  0.53875687  0.79769656  0.14606150     0.02260
C172        C  0.50015656  0.79785709  0.12858674    -0.09920
C173        C  0.46153643  0.79716189  0.14602507     0.04750
C174        C  0.46147032  0.79621069  0.18114460    -0.09340
H175        H  0.56867687  0.79671051  0.19475730     0.10340
H176        H  0.50017064  0.79871076  0.10138891     0.07870
H177        H  0.43156298  0.79580459  0.19469398     0.07720
C178        C  0.00002984  0.80723713  0.19870930     0.04760
C179        C  0.96135962  0.80629888  0.18116032    -0.11390
C180        C  0.96137153  0.80546277  0.14604113     0.02260
C181        C  0.99996869  0.80564782  0.12855237    -0.09920
C182        C  0.03859660  0.80657086  0.14597818     0.04750
C183        C  0.03866948  0.80736500  0.18109806    -0.09340
H184        H  0.93147891  0.80607370  0.19474923     0.10340
H185        H  0.99994767  0.80491197  0.10135507     0.07870
H186        H  0.06857847  0.80794048  0.19463892     0.07720
Zr187      Zr  0.66606224  0.29836056  0.00020146     2.17510
O188        O  0.60226591  0.33746790  0.00243410    -0.49700
O189        O  0.63001832  0.23783688  0.99992826    -0.72910
O190        O  0.63052060  0.30070746  0.44614499    -0.79690
O191        O  0.68043933  0.30397692  0.09525788    -0.81440
O192        O  0.68055946  0.30196837  0.40483601    -0.77060
O193        O  0.63031744  0.30236049  0.05396909    -0.88700
O194        O  0.67979310  0.19122162  0.99951331    -0.74660
O195        O  0.70756103  0.25930685  0.46447553    -0.84150
O196        O  0.70761720  0.25948476  0.03620462    -0.83840
O197        O  0.70708789  0.34122534  0.46652425    -0.70600
O198        O  0.70755810  0.34103718  0.03347671    -0.82730
Zr199      Zr  0.83420015  0.30461281  0.00010501     2.26420
Zr200      Zr  0.75008290  0.30145260  0.43168503     2.06270
Zr201      Zr  0.75017738  0.30156679  0.06876557     2.10050
Zr202      Zr  0.74946806  0.22094038  0.00053330     1.78760
O203        O  0.75063433  0.35289225  0.10924729    -0.91530
O204        O  0.75159076  0.17900030  0.45224068    -0.39340
O205        O  0.79295244  0.26200141  0.03374910    -0.75980
O206        O  0.79281301  0.26175173  0.46684377    -0.94660
O207        O  0.79263366  0.34349913  0.46421427    -0.87970
O208        O  0.79236963  0.34351461  0.03576202    -0.90810
C209        C  0.64127881  0.20308031  0.99956019     1.02940
C210        C  0.64182065  0.30391968  0.08479241     1.15870
C211        C  0.64196519  0.30174988  0.41529567     1.06650
O212        O  0.75121364  0.25169222  0.38967283    -0.92960
O213        O  0.81967903  0.30029077  0.40494223    -0.88710
O214        O  0.86984136  0.30364303  0.44610226    -0.81850
C215        C  0.85831106  0.30159847  0.41530933     1.13290
O216        O  0.68793062  0.42267622  0.99945989    -0.94940
Zr217      Zr  0.75062207  0.38211836  0.99978269     1.88940
O218        O  0.87022801  0.36519104  0.99982365    -0.71590
O219        O  0.75112491  0.35288212  0.39108422    -0.50850
O220        O  0.75141249  0.42105946  0.44937287    -0.95530
O221        O  0.74925111  0.42586201  0.04690849    -0.52750
O222        O  0.82036187  0.41179355  0.99973329    -0.72100
C223        C  0.85889854  0.39995441  0.99968554     1.00240
O224        O  0.89642913  0.26329343  0.00007396    -0.60920
O225        O  0.75098056  0.25147518  0.11068760    -0.55730
O226        O  0.87001556  0.30241864  0.05400012    -0.92410
O227        O  0.81990319  0.29938825  0.09524093    -0.90830
O228        O  0.74884637  0.18064809  0.05005537    -0.91190
O229        O  0.81005128  0.17812667  0.00232414    -0.89980
C230        C  0.85852016  0.30028220  0.08480507     1.19080
H231        H  0.68984153  0.24413926  0.05052532     0.35030
H232        H  0.81135027  0.24638293  0.45320583     0.45880
H233        H  0.81013176  0.35882415  0.05006708     0.39400
H234        H  0.68842624  0.35656988  0.45292034     0.35890
H235        H  0.74438562  0.15378542  0.46136133     0.27670
H236        H  0.74528146  0.34064563  0.36926406     0.33610
H237        H  0.76428379  0.44526899  0.45646021     0.39520
H238        H  0.73767463  0.15612787  0.04207638     0.33980
H239        H  0.74550393  0.26447554  0.13221407     0.32860
H240        H  0.75296740  0.34024352  0.13132860     0.34540
H241        H  0.76137226  0.44964038  0.03798571     0.33510
H242        H  0.83410668  0.19302213  0.49327367     0.37500
H243        H  0.89196944  0.24569971  0.01907225     0.30240
H244        H  0.57889140  0.32129260  0.49405029     0.34470
H245        H  0.69864609  0.44862827  0.49575321     0.37320
H246        H  0.72485489  0.23662736  0.10647024     0.29930
H247        H  0.89316654  0.24704390  0.48006785     0.42800
H248        H  0.72511935  0.23678941  0.39391876     0.32860
H249        H  0.72646632  0.18615574  0.43868382     0.40470
H250        H  0.77105503  0.41638833  0.06272124     0.32330
H251        H  0.72523977  0.36784325  0.39587897     0.32390
H252        H  0.60627500  0.35697047  0.48489771     0.32650
C253        C  0.50019447  0.30706544  0.30128642     0.04760
C254        C  0.53886157  0.30633998  0.31884945    -0.11390
C255        C  0.53883206  0.30541775  0.35396915     0.02260
C256        C  0.50023181  0.30529398  0.37144460    -0.09920
C257        C  0.46161167  0.30598399  0.35400580     0.04750
C258        C  0.46154586  0.30688837  0.31888549    -0.09340
H259        H  0.56875188  0.30633436  0.30527250     0.10340
H260        H  0.50024593  0.30448049  0.39864330     0.07870
H261        H  0.43163876  0.30729559  0.30533585     0.07720
Zr262      Zr  0.16605767  0.30499374  0.00001666     2.17510
O263        O  0.10221413  0.26595025  0.49774154    -0.49700
O264        O  0.13002721  0.36552187  0.00037810    -0.72910
O265        O  0.13052211  0.30255548  0.05407377    -0.79690
O266        O  0.18043416  0.29933219  0.40495549    -0.81440
O267        O  0.18056104  0.30132527  0.09538246    -0.77060
O268        O  0.13031612  0.30096855  0.44624603    -0.88700
O269        O  0.17980275  0.41213488  0.00083350    -0.74660
O270        O  0.20756026  0.34404397  0.03574284    -0.84150
O271        O  0.20760576  0.34387769  0.46401396    -0.83840
O272        O  0.20708505  0.26212288  0.03368724    -0.70600
O273        O  0.20755331  0.26232227  0.46673663    -0.82730
Zr274      Zr  0.33419395  0.29873567  0.00010450     2.26420
Zr275      Zr  0.25008128  0.30189378  0.06852863     2.06270
Zr276      Zr  0.25016823  0.30179620  0.43144781     2.10050
Zr277      Zr  0.24947000  0.38241210  0.99968749     1.78760
O278        O  0.25062359  0.25050595  0.39093070    -0.91530
O279        O  0.25171786  0.42436374  0.04796871    -0.39340
O280        O  0.29295074  0.34135472  0.46646376    -0.75980
O281        O  0.29281517  0.34159532  0.03337333    -0.94660
O282        O  0.29262526  0.25984998  0.03599240    -0.87970
O283        O  0.29235806  0.25984095  0.46444717    -0.90810
C284        C  0.14128891  0.40027666  0.00080087     1.02940
C285        C  0.14181649  0.29938286  0.41542276     1.15870
C286        C  0.14196679  0.30150785  0.08492281     1.06650
O287        O  0.25121301  0.35169583  0.11050222    -0.92960
O288        O  0.31968128  0.30299854  0.09526651    -0.88710
O289        O  0.36984173  0.29967823  0.05410237    -0.81850
C290        C  0.35831236  0.30169035  0.08489704     1.13290
O291        O  0.18791817  0.18068270  0.50070709    -0.94940
Zr292      Zr  0.25061492  0.22123340  0.00042410     1.88940
O293        O  0.37022409  0.23815818  0.00041130    -0.71590
O294        O  0.25113460  0.25049773  0.10916258    -0.50850
O295        O  0.25135163  0.18228949  0.05083261    -0.95530
O296        O  0.24928590  0.17749279  0.45329488    -0.52750
O297        O  0.32035591  0.19155798  0.00051526    -0.72100
C298        C  0.35889338  0.20339520  0.00056539     1.00240
O299        O  0.39640749  0.34006995  0.50012084    -0.60920
O300        O  0.25096159  0.35192427  0.38955992    -0.55730
O301        O  0.37001121  0.30087896  0.44621015    -0.92410
O302        O  0.31989700  0.30391627  0.40497065    -0.90830
O303        O  0.24873096  0.42270553  0.45016684    -0.91190
O304        O  0.31005663  0.42521775  0.49782165    -0.89980
C305        C  0.35851438  0.30299994  0.41540485     1.19080
H306        H  0.18982349  0.35922566  0.44970026     0.35030
H307        H  0.31135576  0.35695950  0.04701247     0.45880
H308        H  0.31011927  0.24452946  0.45014302     0.39400
H309        H  0.18842732  0.24677281  0.04728933     0.35890
H310        H  0.24446297  0.44957244  0.03885891     0.27670
H311        H  0.24523657  0.26274284  0.13096985     0.33610
H312        H  0.26422654  0.15807899  0.04375167     0.39520
H313        H  0.23758182  0.44722656  0.45816365     0.33980
H314        H  0.24556773  0.33893096  0.36801716     0.32860
H315        H  0.25294807  0.26317336  0.36885724     0.34540
H316        H  0.26141005  0.15371697  0.46222064     0.33510
H317        H  0.33409578  0.41035930  0.00694750     0.37500
H318        H  0.39193194  0.35766105  0.48112288     0.30240
H319        H  0.07886042  0.28213043  0.00615454     0.34470
H320        H  0.19862721  0.15472875  0.00441448     0.37320
H321        H  0.22479098  0.36672123  0.39374595     0.29930
H322        H  0.39314449  0.35631659  0.02012847     0.42800
H323        H  0.22505087  0.36652501  0.10631208     0.32860
H324        H  0.22664372  0.41719503  0.06157775     0.40470
H325        H  0.27109437  0.18697225  0.43748887     0.32330
H326        H  0.22528135  0.23550088  0.10434968     0.32390
H327        H  0.10620625  0.24640907  0.01524635     0.32650
C328        C  0.00010966  0.29583314  0.30132345     0.04760
C329        C  0.03874959  0.29573752  0.31893511    -0.11390
C330        C  0.03867609  0.29657471  0.35405450     0.02260
C331        C  0.00004766  0.29750555  0.37147906    -0.09920
C332        C  0.96145079  0.29766030  0.35399018     0.04750
C333        C  0.96143917  0.29678099  0.31887187    -0.09340
H334        H  0.06865900  0.29516158  0.30539482     0.10340
H335        H  0.00002609  0.29827906  0.39867549     0.07870
H336        H  0.93155844  0.29698840  0.30528286     0.07720
C337        C  0.50011001  0.30718108  0.19888916     0.04760
C338        C  0.53875020  0.30731597  0.18127919    -0.11390
C339        C  0.53867792  0.30655480  0.14615894     0.02260
C340        C  0.50005082  0.30565649  0.12873145    -0.09920
C341        C  0.46145356  0.30546462  0.14621948     0.04750
C342        C  0.46144035  0.30626805  0.18133899    -0.09340
H343        H  0.56865890  0.30787325  0.19482110     0.10340
H344        H  0.50003045  0.30494585  0.10153356     0.07870
H345        H  0.43155904  0.30603858  0.19492705     0.07720
C346        C  0.00019455  0.29593980  0.19892402     0.04760
C347        C  0.96154654  0.29615434  0.18132347    -0.11390
C348        C  0.96161410  0.29712640  0.14620397     0.02260
C349        C  0.00023535  0.29784287  0.12876752    -0.09920
C350        C  0.03883469  0.29768317  0.14624385     0.04750
C351        C  0.03886246  0.29669374  0.18136243    -0.09340
H352        H  0.93163864  0.29573292  0.19487167     0.10340
H353        H  0.00025100  0.29871288  0.10157008     0.07870
H354        H  0.06875219  0.29667835  0.19494010     0.07720
C355        C  0.46157680  0.96965939  0.49945358     0.04760
C356        C  0.46137927  0.00921101  0.49927789    -0.11390
C357        C  0.49991537  0.03020113  0.50000030     0.02260
C358        C  0.53845257  0.00921260  0.50069806    -0.09920
C359        C  0.53827759  0.96967230  0.50045512     0.04750
C360        C  0.49993457  0.95007485  0.49992433    -0.09340
H361        H  0.43065781  0.02258552  0.49849493     0.10340
H362        H  0.56917457  0.02257211  0.50154092     0.07870
H363        H  0.49994562  0.91944313  0.49990372     0.07720
C364        C  0.53833134  0.13364439  0.99958505     0.04760
C365        C  0.53848072  0.09410385  0.99934158    -0.11390
C366        C  0.49992987  0.07313513  0.00004256     0.02260
C367        C  0.46140778  0.09414487  0.00076808    -0.09920
C368        C  0.46163042  0.13369613  0.00059132     0.04750
C369        C  0.50000054  0.15326146  0.00011808    -0.09340
H370        H  0.56919394  0.08072841  0.99849537     0.10340
H371        H  0.43067801  0.08078585  0.00155432     0.07870
H372        H  0.50003076  0.18389316  0.00013828     0.07720
C373        C  0.00014633  0.29540195  0.26523919    -0.11640
C374        C  0.00017038  0.29542909  0.23500872    -0.13200
C375        C  0.39222283  0.17573881  0.00073565    -0.11640
C376        C  0.42252373  0.15487755  0.00079065    -0.13200
C377        C  0.42219317  0.30411927  0.12768182    -0.11640
C378        C  0.39162561  0.30289636  0.10945570    -0.13200
C379        C  0.07791830  0.29695203  0.37265294    -0.11640
C380        C  0.10848066  0.29777260  0.39090266    -0.13200
C381        C  0.10862498  0.30017047  0.10944388    -0.11640
C382        C  0.07807922  0.29893613  0.12768900    -0.13200
C383        C  0.50017113  0.30754039  0.26520248    -0.11640
C384        C  0.50014588  0.30756996  0.23497270    -0.13200
C385        C  0.39184088  0.30438744  0.39086881    -0.11640
C386        C  0.42237811  0.30531552  0.37259956    -0.13200
C387        C  0.60788870  0.17548976  0.99931661    -0.11640
C388        C  0.57749218  0.15474212  0.99931439    -0.13200
C389        C  0.60848604  0.30547710  0.10931463    -0.11640
C390        C  0.57792094  0.30624017  0.12756252    -0.13200
C391        C  0.92238203  0.29785454  0.12760896    -0.11640
C392        C  0.89184739  0.29883879  0.10933879    -0.13200
C393        C  0.89162387  0.30034090  0.39075103    -0.11640
C394        C  0.92219001  0.29906361  0.37252553    -0.13200
C395        C  0.60862248  0.30303076  0.39077339    -0.11640
C396        C  0.57807610  0.30421461  0.37252663    -0.13200
C397        C  0.00006741  0.80765111  0.23479323    -0.11640
C398        C  0.00009510  0.80763270  0.26502336    -0.13200
C399        C  0.39215263  0.92763932  0.49930847    -0.11640
C400        C  0.42245798  0.94849551  0.49925461    -0.13200
C401        C  0.39176885  0.79886876  0.10916234    -0.11640
C402        C  0.42230380  0.79788824  0.12743182    -0.13200
C403        C  0.07783994  0.80624645  0.12738078    -0.11640
C404        C  0.10840589  0.80547609  0.10913321    -0.13200
C405        C  0.10855304  0.80311588  0.39059261    -0.11640
C406        C  0.07800657  0.80430727  0.37234617    -0.13200
C407        C  0.50006767  0.79547402  0.26505801    -0.11640
C408        C  0.50009470  0.79549844  0.23482789    -0.13200
C409        C  0.39155404  0.80038735  0.39057477    -0.11640
C410        C  0.42211896  0.79911507  0.37234808    -0.13200
C411        C  0.57742473  0.94855485  0.50072381    -0.11640
C412        C  0.60781197  0.92779656  0.50072036    -0.13200
C413        C  0.60854345  0.80014560  0.10925544    -0.11640
C414        C  0.57800002  0.79892766  0.12750381    -0.13200
C415        C  0.92211027  0.80409109  0.12750451    -0.11640
C416        C  0.89154272  0.80284971  0.10927850    -0.13200
C417        C  0.89177202  0.80438781  0.39069192    -0.11640
C418        C  0.92230860  0.80534357  0.37242309    -0.13200
C419        C  0.57784561  0.79693020  0.37246616    -0.11640
C420        C  0.60841082  0.79772408  0.39071312    -0.13200
C421        C  0.89222890  0.42760841  0.99953649    -0.11640
C422        C  0.92253192  0.44846609  0.99949501    -0.13200
C423        C  0.10789920  0.42786502  0.00112994    -0.11640
C424        C  0.07749870  0.44860714  0.00117457    -0.13200
C425        C  0.07743862  0.65476262  0.49890198    -0.11640
C426        C  0.10783301  0.67551114  0.49893474    -0.13200
C427        C  0.92247139  0.65483654  0.50057279    -0.11640
C428        C  0.89215978  0.67568462  0.50051772    -0.13200
C429        C  0.03828811  0.63365364  0.99921565     0.04760
C430        C  0.99994716  0.65325626  0.99973787    -0.11390
C431        C  0.96159019  0.63367480  0.00036835     0.02260
C432        C  0.96139331  0.59412506  0.50073484    -0.09920
C433        C  0.99992493  0.57313314  0.49998029     0.04750
C434        C  0.03845938  0.59411324  0.49909124    -0.09340
H435        H  0.99995973  0.68388802  0.99965230     0.10340
H436        H  0.93067955  0.58075025  0.50171294     0.07870
H437        H  0.06917419  0.58074337  0.49818883     0.07720
C438        C  0.03833648  0.46970016  0.50087028     0.04760
C439        C  0.03848468  0.50924065  0.50100333    -0.11390
C440        C  0.99993776  0.53020362  0.50011501     0.02260
C441        C  0.96141861  0.50919453  0.49935497    -0.09920
C442        C  0.96163853  0.46964503  0.49971296     0.04750
C443        C  0.00000677  0.45008072  0.50034207    -0.09340
H444        H  0.06919163  0.52262414  0.50190927     0.10340
H445        H  0.93069716  0.52255571  0.49837672     0.07870
H446        H  0.00003698  0.41944897  0.50041934     0.07720
Zr447      Zr  0.66597989  0.80492020  0.99982632     2.17510
O448        O  0.60215911  0.76584539  0.99757772    -0.49700
O449        O  0.62993924  0.86544750  0.00010525    -0.72910
O450        O  0.63044126  0.80252527  0.55388434    -0.79690
O451        O  0.68036367  0.79927461  0.90476817    -0.81440
O452        O  0.68047910  0.80126182  0.59519347    -0.77060
O453        O  0.63024200  0.80088468  0.94605720    -0.88700
O454        O  0.67971372  0.91206228  0.00052399    -0.74660
O455        O  0.70747576  0.84397202  0.53555608    -0.84150
O456        O  0.70753316  0.84380113  0.96382588    -0.83840
O457        O  0.70700928  0.76205143  0.53349787    -0.70600
O458        O  0.70748120  0.76224961  0.96654836    -0.82730
Zr459      Zr  0.83411814  0.79867289  0.99992335     2.26420
Zr460      Zr  0.75000015  0.80182246  0.56834246     2.06270
Zr461      Zr  0.75009837  0.80172423  0.93126185     2.10050
Zr462      Zr  0.74938547  0.88234161  0.99950104     1.78760
O463        O  0.75056244  0.75042613  0.89075275    -0.91530
O464        O  0.75151037  0.92428072  0.54779416    -0.39340
O465        O  0.79287267  0.84128723  0.96628062    -0.75980
O466        O  0.79273149  0.84152837  0.53318969    -0.94660
O467        O  0.79255087  0.75978188  0.53580822    -0.87970
O468        O  0.79229097  0.75977379  0.96426266    -0.90810
C469        C  0.64119988  0.90020410  0.00047616     1.02940
C470        C  0.64174526  0.79931634  0.91523420     1.15870
C471        C  0.64188522  0.80146690  0.58473353     1.06650
O472        O  0.75112676  0.85161006  0.61032940    -0.92960
O473        O  0.81959770  0.80294049  0.59508577    -0.88710
O474        O  0.86976088  0.79961187  0.55392457    -0.81850
C475        C  0.85822989  0.80163120  0.58471859     1.13290
O476        O  0.68785733  0.68060311  0.00054037    -0.94940
Zr477      Zr  0.75054587  0.72116378  0.00023660     1.88940
O478        O  0.87015207  0.73809902  0.00021114    -0.71590
O479        O  0.75105082  0.75041339  0.60896373    -0.50850
O480        O  0.75131745  0.68221542  0.55064222    -0.95530
O481        O  0.74919561  0.67742943  0.95310348    -0.52750
O482        O  0.82028989  0.69149367  0.00030397    -0.72100
C483        C  0.85882567  0.70333527  0.00035502     1.00240
O484        O  0.89633464  0.84000460  0.99995756    -0.60920
O485        O  0.75089157  0.85184409  0.88936621    -0.55730
O486        O  0.86993838  0.80084747  0.94603102    -0.92410
O487        O  0.81982737  0.80387393  0.90478870    -0.90950
O488        O  0.74876038  0.92263773  0.94998128    -0.91190
O489        O  0.80996616  0.92515780  0.99771126    -0.89980
C490        C  0.85844389  0.80297272  0.91522542     1.19080
H491        H  0.68975554  0.85914611  0.94950614     0.35030
H492        H  0.81126881  0.85689392  0.54683035     0.45880
H493        H  0.81005467  0.74446525  0.94995788     0.39400
H494        H  0.68835018  0.74670193  0.54709935     0.35890
H495        H  0.74429643  0.94949450  0.53867527     0.27670
H496        H  0.74516101  0.76265306  0.63077478     0.33610
H497        H  0.76419296  0.65800734  0.54355539     0.39520
H498        H  0.73759268  0.94715852  0.95796271     0.33980
H499        H  0.74547567  0.83884959  0.86782747     0.32860
H500        H  0.75289158  0.76308957  0.86867780     0.34540
H501        H  0.76132479  0.65365274  0.96202317     0.33510
H502        H  0.83401891  0.91026751  0.50677398     0.37500
H503        H  0.89186689  0.85759995  0.98096161     0.30240
H504        H  0.57879563  0.78202295  0.50597768     0.34470
H505        H  0.69857358  0.65465023  0.50424150     0.37320
H506        H  0.72473269  0.86665412  0.89356128     0.29930
H507        H  0.89306767  0.85624782  0.51996688     0.42800
H508        H  0.72498948  0.86646570  0.60611690     0.32860
H509        H  0.72639148  0.91712006  0.56135522     0.40470
H510        H  0.77099684  0.68691200  0.93729271     0.32330
H511        H  0.72519261  0.73542308  0.60415128     0.32390
H512        H  0.60616152  0.74632295  0.51509768     0.32650
C513        C  0.50003195  0.79589620  0.80114174     0.04760
C514        C  0.46136304  0.79685275  0.81869177    -0.11390
C515        C  0.46137759  0.79771158  0.85381047     0.02260
C516        C  0.49997543  0.79752891  0.87129776    -0.09920
C517        C  0.53860171  0.79658854  0.85387080     0.04750
C518        C  0.53867252  0.79577210  0.81875148    -0.09340
H519        H  0.43148158  0.79707925  0.80510396     0.10340
H520        H  0.49995636  0.79828514  0.89849461     0.07870
H521        H  0.56858070  0.79518697  0.80520977     0.07720
Zr522      Zr  0.16599156  0.79838049  0.00001881     2.17510
O523        O  0.10217578  0.83746026  0.50228500    -0.49700
O524        O  0.12995760  0.73785525  0.99966487    -0.72910
O525        O  0.13045028  0.80077840  0.94596397    -0.79690
O526        O  0.18036131  0.80398277  0.59507874    -0.81440
O527        O  0.18048976  0.80202031  0.90465539    -0.77060
O528        O  0.13024290  0.80235235  0.55378814    -0.88700
O529        O  0.17973508  0.69124299  0.99921546    -0.74660
O530        O  0.20749561  0.75933584  0.96428917    -0.84150
O531        O  0.20754291  0.75949416  0.53601666    -0.83840
O532        O  0.20701571  0.84125523  0.96635064    -0.70600
O533        O  0.20748291  0.84105084  0.53330320    -0.82730
Zr534      Zr  0.33412810  0.80463933  0.99992770     2.26420
Zr535      Zr  0.25001283  0.80148989  0.93150563     2.06270
Zr536      Zr  0.25010011  0.80157311  0.56858657     2.10050
Zr537      Zr  0.24940420  0.72096286  0.00034028     1.78760
O538        O  0.25055540  0.85288955  0.60907741    -0.91530
O539        O  0.25162544  0.67901827  0.95205358    -0.39340
O540        O  0.29288176  0.76201931  0.53356496    -0.75980
O541        O  0.29274597  0.76178363  0.96665774    -0.94660
O542        O  0.29255936  0.84353087  0.96404339    -0.87970
O543        O  0.29229356  0.84353022  0.53559100    -0.90810
C544        C  0.14122083  0.70310068  0.99924997     1.02940
C545        C  0.14174308  0.80391724  0.58461208     1.15870
C546        C  0.14189526  0.80181871  0.91511479     1.06650
O547        O  0.25113916  0.75172875  0.88949388    -0.92960
O548        O  0.31960973  0.80033794  0.90476475    -0.88710
O549        O  0.36977180  0.80366977  0.94592651    -0.81850
C550        C  0.35824157  0.80163779  0.91513292     1.13290
O551        O  0.18784806  0.92269061  0.49934259    -0.94940
Zr552      Zr  0.25054669  0.88214134  0.99961762     1.88940
O553        O  0.37015457  0.86521949  0.99962644    -0.71590
O554        O  0.25105901  0.85292029  0.89090616    -0.50850
O555        O  0.25127581  0.92109521  0.94921504    -0.95530
O556        O  0.24922371  0.92587780  0.54675009    -0.52750
O557        O  0.32028569  0.91181957  0.99952642    -0.72100
C558        C  0.35882336  0.89998269  0.99947504     1.00240
O559        O  0.39635279  0.76331525  0.49990753    -0.60920
O560        O  0.25090101  0.75147324  0.61050099    -0.55730
O561        O  0.36994013  0.80245462  0.55382411    -0.92410
O562        O  0.31982573  0.79939816  0.59506231    -0.90830
O563        O  0.24869082  0.68066590  0.54985889    -0.91190
O564        O  0.30999244  0.67815759  0.50218668    -0.89980
C565        C  0.35844298  0.80030706  0.58462804     1.19080
H566        H  0.18976389  0.74414271  0.55032984     0.35030
H567        H  0.31128471  0.74641836  0.95301792     0.45880
H568        H  0.31005642  0.85883793  0.54989696     0.39400
H569        H  0.18835499  0.85660377  0.95274956     0.35890
H570        H  0.24438463  0.65380692  0.96116442     0.27670
H571        H  0.24520857  0.84068567  0.86908633     0.33610
H572        H  0.26414978  0.94530491  0.95629888     0.39520
H573        H  0.23753275  0.65614690  0.54186518     0.33980
H574        H  0.24543078  0.76447037  0.63203002     0.32860
H575        H  0.25288813  0.84023604  0.63115659     0.34540
H576        H  0.26133231  0.94965851  0.53782165     0.33510
H577        H  0.33403343  0.69302472  0.99307469     0.37500
H578        H  0.39188339  0.74571979  0.51890318     0.30240
H579        H  0.07880921  0.82128491  0.99388744     0.34470
H580        H  0.19855512  0.94864563  0.99563783     0.37320
H581        H  0.22477145  0.73663055  0.60628426     0.29930
H582        H  0.39309601  0.74706918  0.97989907     0.42800
H583        H  0.22502945  0.73684221  0.89372599     0.32860
H584        H  0.22653847  0.68618343  0.93845772     0.40470
H585        H  0.27104533  0.91640489  0.56254793     0.32330
H586        H  0.22517823  0.86788588  0.89570456     0.32390
H587        H  0.10617487  0.85698364  0.98476553     0.32650
C588        C  0.00012071  0.80715840  0.80110790     0.04760
C589        C  0.96147303  0.80695966  0.81870831    -0.11390
C590        C  0.96154085  0.80604345  0.85382851     0.02260
C591        C  0.00016200  0.80536485  0.87126612    -0.09920
C592        C  0.03876145  0.80550994  0.85378974     0.04750
C593        C  0.03878900  0.80644362  0.81867005    -0.09340
H594        H  0.93156504  0.80735553  0.80515966     0.10340
H595        H  0.00017759  0.80454000  0.89846459     0.07870
H596        H  0.06867873  0.80645133  0.80509234     0.07720
C597        C  0.50011901  0.79599511  0.69874356     0.04760
C598        C  0.53878647  0.79672772  0.68118052    -0.11390
C599        C  0.53875682  0.79769660  0.64606142     0.02260
C600        C  0.50015647  0.79785708  0.62858671    -0.09920
C601        C  0.46153637  0.79716184  0.64602510     0.04750
C602        C  0.46147034  0.79621066  0.68114462    -0.09340
H603        H  0.56867692  0.79671059  0.69475719     0.10340
H604        H  0.50017049  0.79871075  0.60138889     0.07870
H605        H  0.43156303  0.79580452  0.69469404     0.07720
C606        C  0.00002974  0.80723713  0.69870932     0.04760
C607        C  0.96135951  0.80629888  0.68116036    -0.11390
C608        C  0.96137141  0.80546275  0.64604116     0.02260
C609        C  0.99996856  0.80564779  0.62855240    -0.09920
C610        C  0.03859648  0.80657083  0.64597820     0.04750
C611        C  0.03866937  0.80736500  0.68109808    -0.09340
H612        H  0.93147881  0.80607371  0.69474928     0.10340
H613        H  0.99994754  0.80491193  0.60135510     0.07870
H614        H  0.06857837  0.80794048  0.69463893     0.07720
Zr615      Zr  0.66606229  0.29836048  0.50020156     2.17510
O616        O  0.60226608  0.33746798  0.50243410    -0.49700
O617        O  0.63001824  0.23783687  0.49992889    -0.72910
O618        O  0.63052058  0.30070766  0.94614488    -0.79690
O619        O  0.68043943  0.30397685  0.59525796    -0.81440
O620        O  0.68055947  0.30196857  0.90483592    -0.77060
O621        O  0.63031752  0.30236064  0.55396919    -0.88700
O622        O  0.67979292  0.19122151  0.49951409    -0.74660
O623        O  0.70756111  0.25930707  0.96447541    -0.84150
O624        O  0.70761722  0.25948466  0.53620473    -0.83840
O625        O  0.70708776  0.34122554  0.96652419    -0.70600
O626        O  0.70755827  0.34103706  0.53347677    -0.82730
Zr627      Zr  0.83420024  0.30461241  0.50010504     2.26420
Zr628      Zr  0.75008289  0.30145292  0.93168497     2.06270
Zr629      Zr  0.75017748  0.30156662  0.56876564     2.10050
Zr630      Zr  0.74946794  0.22094015  0.50053343     1.78760
O631        O  0.75063450  0.35289213  0.60924732    -0.91530
O632        O  0.75159147  0.17900051  0.95224057    -0.39340
O633        O  0.79295243  0.26200113  0.53374919    -0.75980
O634        O  0.79281306  0.26175208  0.96684369    -0.94660
O635        O  0.79263352  0.34349951  0.96421425    -0.87970
O636        O  0.79236982  0.34351432  0.53576203    -0.90810
C637        C  0.64127866  0.20308027  0.49956112     1.02940
C638        C  0.64182074  0.30391974  0.58479250     1.15870
C639        C  0.64196519  0.30175007  0.91529557     1.06650
O640        O  0.75121372  0.25169257  0.88967273    -0.92960
O641        O  0.81967904  0.30029113  0.90494219    -0.88710
O642        O  0.86984132  0.30364347  0.94610224    -0.81850
C643        C  0.85831106  0.30159887  0.91530931     1.13290
O644        O  0.68793104  0.42267615  0.49945991    -0.94940
Zr645      Zr  0.75062233  0.38211811  0.49978269     1.88940
O646        O  0.87022827  0.36519058  0.49982368    -0.71590
O647        O  0.75112484  0.35288247  0.89108419    -0.50850
O648        O  0.75141212  0.42105979  0.94937291    -0.95530
O649        O  0.74925158  0.42586180  0.54690847    -0.52750
O650        O  0.82036220  0.41179315  0.49973326    -0.72100
C651        C  0.85889885  0.39995397  0.49968554     1.00240
O652        O  0.89642902  0.26329280  0.50007398    -0.60920
O653        O  0.75098060  0.25147504  0.61068770    -0.55730
O654        O  0.87001566  0.30241822  0.55400014    -0.92410
O655        O  0.81990331  0.29938803  0.59524097    -0.90830
O656        O  0.74884658  0.18064783  0.55005549    -0.91190
O657        O  0.81005104  0.17812629  0.50232405    -0.89980
C658        C  0.85852027  0.30028187  0.58480510     1.19080
H659        H  0.68984154  0.24413921  0.55052548     0.35030
H660        H  0.81135036  0.24638332  0.95320575     0.45880
H661        H  0.81013200  0.35882383  0.55006708     0.39400
H662        H  0.68842608  0.35657006  0.95292029     0.35890
H663        H  0.74438619  0.15378564  0.96136118     0.27670
H664        H  0.74528145  0.34064598  0.86926401     0.33610
H665        H  0.76428330  0.44526936  0.95646029     0.39520
H666        H  0.73767481  0.15612760  0.54207652     0.33980
H667        H  0.74550392  0.26447541  0.63221415     0.32860
H668        H  0.75296754  0.34024341  0.63132864     0.34540
H669        H  0.76137279  0.44964013  0.53798566     0.33510
H670        H  0.83410690  0.19302255  0.99327377     0.37500
H671        H  0.89196924  0.24569909  0.51907226     0.30240
H672        H  0.57889128  0.32129249  0.99405025     0.34470
H673        H  0.69864557  0.44862838  0.99575325     0.37320
H674        H  0.72485495  0.23662720  0.60647031     0.29930
H675        H  0.89316673  0.24704449  0.98006784     0.42800
H676        H  0.72511944  0.23678973  0.89391864     0.32860
H677        H  0.72646721  0.18615597  0.93868351     0.40470
H678        H  0.77105549  0.41638808  0.56272121     0.32330
H679        H  0.72523966  0.36784355  0.89587893     0.32390
H680        H  0.60627477  0.35697046  0.98489778     0.32650
C681        C  0.50019437  0.30706543  0.80128639     0.04760
C682        C  0.53886150  0.30634001  0.81884939    -0.11390
C683        C  0.53883203  0.30541777  0.85396909     0.02260
C684        C  0.50023182  0.30529396  0.87144457    -0.09920
C685        C  0.46161165  0.30598393  0.85400582     0.04750
C686        C  0.46154578  0.30688831  0.81888550    -0.09340
H687        H  0.56875179  0.30633443  0.80527241     0.10340
H688        H  0.50024598  0.30448047  0.89864327     0.07870
H689        H  0.43163866  0.30729550  0.80533589     0.07720
Zr690      Zr  0.16605768  0.30499373  0.50001662     2.17510
O691        O  0.10221416  0.26595019  0.99774154    -0.49700
O692        O  0.13002731  0.36552190  0.50037807    -0.72910
O693        O  0.13052215  0.30255550  0.55407375    -0.79690
O694        O  0.18043423  0.29933213  0.90495554    -0.81440
O695        O  0.18056112  0.30132518  0.59538242    -0.77060
O696        O  0.13031616  0.30096853  0.94624606    -0.88700
O697        O  0.17980290  0.41213486  0.50083348    -0.74660
O698        O  0.20756035  0.34404389  0.53574281    -0.84150
O699        O  0.20760575  0.34387767  0.96401399    -0.83840
O700        O  0.20708503  0.26212281  0.53368715    -0.70600
O701        O  0.20755338  0.26232226  0.96673674    -0.82730
Zr702      Zr  0.33419394  0.29873554  0.50010437     2.26420
Zr703      Zr  0.25008134  0.30189363  0.56852856     2.06270
Zr704      Zr  0.25016829  0.30179616  0.93144790     2.10050
Zr705      Zr  0.24947011  0.38241203  0.49968748     1.78760
O706        O  0.25062368  0.25050588  0.89093083    -0.91530
O707        O  0.25171796  0.42436365  0.54796870    -0.39340
O708        O  0.29295071  0.34135477  0.96646384    -0.75980
O709        O  0.29281523  0.34159518  0.53337327    -0.94660
O710        O  0.29262527  0.25984982  0.53599227    -0.87970
O711        O  0.29235818  0.25984097  0.96444731    -0.90810
C712        C  0.14128905  0.40027668  0.50080084     1.02940
C713        C  0.14181655  0.29938281  0.91542279     1.15870
C714        C  0.14196686  0.30150784  0.58492279     1.06650
O715        O  0.25121312  0.35169566  0.61050216    -0.92960
O716        O  0.31968136  0.30299837  0.59526640    -0.88710
O717        O  0.36984176  0.29967782  0.55410225    -0.81850
C718        C  0.35831242  0.30169005  0.58489692     1.13290
O719        O  0.18791826  0.18068275  0.00070681    -0.94940
Zr720      Zr  0.25061483  0.22123335  0.50042394     1.88940
O721        O  0.37022400  0.23815803  0.50041041    -0.71590
O722        O  0.25113463  0.25049758  0.60916250    -0.50850
O723        O  0.25135231  0.18228946  0.55083246    -0.95530
O724        O  0.24928673  0.17749281  0.95329506    -0.52750
O725        O  0.32035577  0.19155787  0.50051413    -0.72100
C726        C  0.35889324  0.20339506  0.50056408     1.00240
O727        O  0.39640744  0.34007014  0.00012076    -0.60920
O728        O  0.25096168  0.35192419  0.88955997    -0.55730
O729        O  0.37001126  0.30087883  0.94621027    -0.92410
O730        O  0.31989707  0.30391625  0.90497076    -0.90830
O731        O  0.24873076  0.42270559  0.95016685    -0.91190
O732        O  0.31005648  0.42521786  0.99782160    -0.89980
C733        C  0.35851444  0.30299985  0.91540497     1.19080
H734        H  0.18982347  0.35922562  0.94970026     0.35030
H735        H  0.31135585  0.35695932  0.54701241     0.45880
H736        H  0.31011946  0.24452946  0.95014323     0.39400
H737        H  0.18842730  0.24677275  0.54728923     0.35890
H738        H  0.24446310  0.44957237  0.53885891     0.27670
H739        H  0.24523659  0.26274268  0.63096976     0.33610
H740        H  0.26422722  0.15807900  0.54375142     0.39520
H741        H  0.23758163  0.44722663  0.95816368     0.33980
H742        H  0.24556777  0.33893086  0.86801722     0.32860
H743        H  0.25294812  0.26317327  0.86885735     0.34540
H744        H  0.26141082  0.15371701  0.96222093     0.33510
H745        H  0.33409591  0.41035916  0.50694755     0.37500
H746        H  0.39193180  0.35766120  0.98112278     0.30240
H747        H  0.07886041  0.28213050  0.50615455     0.34470
H748        H  0.19862714  0.15472873  0.50441487     0.37320
H749        H  0.22479109  0.36672118  0.89374600     0.29930
H750        H  0.39314449  0.35631636  0.52012857     0.42800
H751        H  0.22505101  0.36652488  0.60631201     0.32860
H752        H  0.22664381  0.41719495  0.56157774     0.40470
H753        H  0.27109539  0.18697227  0.93748920     0.32330
H754        H  0.22528138  0.23550073  0.60434959     0.32390
H755        H  0.10620620  0.24640912  0.51524634     0.32650
C756        C  0.00010972  0.29583319  0.80132348     0.04760
C757        C  0.03874965  0.29573751  0.81893514    -0.11390
C758        C  0.03867614  0.29657472  0.85405454     0.02260
C759        C  0.00004771  0.29750566  0.87147909    -0.09920
C760        C  0.96145084  0.29766048  0.85399021     0.04750
C761        C  0.96143923  0.29678114  0.81887190    -0.09340
H762        H  0.06865906  0.29516150  0.80539486     0.10340
H763        H  0.00002614  0.29827920  0.89867552     0.07870
H764        H  0.93155850  0.29698860  0.80528288     0.07720
C765        C  0.50010994  0.30718108  0.69888913     0.04760
C766        C  0.53875016  0.30731605  0.68127921    -0.11390
C767        C  0.53867795  0.30655485  0.64615896     0.02260
C768        C  0.50005088  0.30565645  0.62873142    -0.09920
C769        C  0.46145359  0.30546450  0.64621940     0.04750
C770        C  0.46144032  0.30626795  0.68133891    -0.09340
H771        H  0.56865883  0.30787339  0.69482115     0.10340
H772        H  0.50003057  0.30494579  0.60153353     0.07870
H773        H  0.43155898  0.30603841  0.69492695     0.07720
C774        C  0.00019466  0.29593979  0.69892405     0.04760
C775        C  0.96154665  0.29615425  0.68132350    -0.11390
C776        C  0.96161421  0.29712627  0.64620400     0.02260
C777        C  0.00023545  0.29784279  0.62876755    -0.09920
C778        C  0.03883479  0.29768318  0.64624387     0.04750
C779        C  0.03886257  0.29669379  0.68136246    -0.09340
H780        H  0.93163875  0.29573279  0.69487170     0.10340
H781        H  0.00025110  0.29871276  0.60157011     0.07870
H782        H  0.06875230  0.29667846  0.69494013     0.07720
C783        C  0.46157686  0.96965956  0.99945162     0.04760
C784        C  0.46137937  0.00921119  0.99927537    -0.11390
C785        C  0.49991542  0.03020126  0.00000023     0.02260
C786        C  0.53845256  0.00921275  0.00070028    -0.09920
C787        C  0.53827762  0.96967245  0.00045639     0.04750
C788        C  0.49993461  0.95007502  0.99992387    -0.09340
H789        H  0.43065806  0.02258584  0.99848982     0.10340
H790        H  0.56917441  0.02257234  0.00154596     0.07870
H791        H  0.49994567  0.91944329  0.99990314     0.07720
C792        C  0.53833122  0.13364437  0.49958625     0.04760
C793        C  0.53848069  0.09410383  0.49934373    -0.11390
C794        C  0.49992979  0.07313504  0.50004243     0.02260
C795        C  0.46140763  0.09414481  0.50076551    -0.09920
C796        C  0.46163027  0.13369606  0.50058933     0.04750
C797        C  0.50000037  0.15326142  0.50011758    -0.09340
H798        H  0.56919407  0.08072851  0.49850031     0.10340
H799        H  0.43067772  0.08078591  0.50154917     0.07870
H800        H  0.50003057  0.18389312  0.50013766     0.07720
C801        C  0.00014640  0.29540198  0.76523922    -0.11640
C802        C  0.00017048  0.29542911  0.73500875    -0.13200
C803        C  0.39222266  0.17573867  0.50073354    -0.11640
C804        C  0.42252357  0.15487744  0.50078815    -0.13200
C805        C  0.42219323  0.30411904  0.62768170    -0.11640
C806        C  0.39162569  0.30289606  0.60945556    -0.13200
C807        C  0.07791836  0.29695201  0.87265297    -0.11640
C808        C  0.10848072  0.29777255  0.89090268    -0.13200
C809        C  0.10862506  0.30017049  0.60944388    -0.11640
C810        C  0.07807932  0.29893616  0.62768901    -0.13200
C811        C  0.50017098  0.30754038  0.76520245    -0.11640
C812        C  0.50014574  0.30756996  0.73497267    -0.13200
C813        C  0.39184094  0.30438733  0.89086892    -0.11640
C814        C  0.42237812  0.30531542  0.87259963    -0.13200
C815        C  0.60788852  0.17548976  0.49931811    -0.11640
C816        C  0.57749202  0.15474213  0.49931614    -0.13200
C817        C  0.60848613  0.30547722  0.60931472    -0.11640
C818        C  0.57792101  0.30624028  0.62756258    -0.13200
C819        C  0.92238214  0.29785431  0.62760899    -0.11640
C820        C  0.89184750  0.29883849  0.60933881    -0.13200
C821        C  0.89162389  0.30034127  0.89075103    -0.11640
C822        C  0.92219006  0.29906390  0.87252555    -0.13200
C823        C  0.60862250  0.30303091  0.89077328    -0.11640
C824        C  0.57807611  0.30421470  0.87252653    -0.13200
C825        C  0.00006733  0.80765113  0.73479325    -0.11640
C826        C  0.00009504  0.80763273  0.76502339    -0.13200
C827        C  0.39215273  0.92763941  0.99930635    -0.11640
C828        C  0.42245804  0.94849566  0.99925212    -0.13200
C829        C  0.39176871  0.79886860  0.60916247    -0.11640
C830        C  0.42230370  0.79788813  0.62743190    -0.13200
C831        C  0.07783980  0.80624641  0.62738079    -0.11640
C832        C  0.10840574  0.80547603  0.60913321    -0.13200
C833        C  0.10855301  0.80311592  0.89059262    -0.11640
C834        C  0.07800653  0.80430732  0.87234619    -0.13200
C835        C  0.50006783  0.79547402  0.76505798    -0.11640
C836        C  0.50009484  0.79549845  0.73482787    -0.13200
C837        C  0.39155402  0.80038716  0.89057463    -0.11640
C838        C  0.42211895  0.79911491  0.87234796    -0.13200
C839        C  0.57742475  0.94855498  0.00072563    -0.11640
C840        C  0.60781198  0.92779668  0.00072191    -0.13200
C841        C  0.60854337  0.80014569  0.60925531    -0.11640
C842        C  0.57799993  0.79892774  0.62750369    -0.13200
C843        C  0.92211015  0.80409106  0.62750454    -0.11640
C844        C  0.89154262  0.80284968  0.60927852    -0.13200
C845        C  0.89177195  0.80438789  0.89069193    -0.11640
C846        C  0.92230854  0.80534364  0.87242310    -0.13200
C847        C  0.57784560  0.79693034  0.87246622    -0.11640
C848        C  0.60841077  0.79772426  0.89071321    -0.13200
C849        C  0.89222921  0.42760797  0.49953649    -0.11640
C850        C  0.92253214  0.44846576  0.49949502    -0.13200
C851        C  0.10789938  0.42786505  0.50112989    -0.11640
C852        C  0.07749888  0.44860714  0.50117451    -0.13200
C853        C  0.07743871  0.65476270  0.99890192    -0.11640
C854        C  0.10783309  0.67551122  0.99893469    -0.13200
C855        C  0.92247147  0.65483671  0.00057283    -0.11640
C856        C  0.89215983  0.67568476  0.00051775    -0.13200
loop_ 
_geom_bond_atom_site_label_1 
_geom_bond_atom_site_label_2 
_geom_bond_distance 
_geom_bond_site_symmetry_2 
_ccdc_geom_bond_type 
C1            C2   1.391   1_455  A
C1          C434   1.401       .  A
C1          C425   1.440       .  S
C2            C3   1.391       .  A
C2            H7   1.085       .  S
C3          C432   1.401       .  A
C3          C427   1.440       .  S
C4            C5   1.422   1_554  A
C4          C431   1.401       .  A
C4            H8   1.076       .  S
C5            C6   1.422   1_655  A
C5           C12   1.521   1_556  S
C6          C429   1.401       .  A
C6            H9   1.076       .  S
C10          C11   1.401       .  A
C10          C15   1.391       .  A
C10         C424   1.440       .  S
C11          C12   1.422   1_455  A
C11          H16   1.076       .  S
C12          C13   1.422   1_554  A
C13          C14   1.401       .  A
C13          H17   1.076       .  S
C14          C15   1.391   1_656  A
C14         C422   1.440       .  S
C15          H18   1.085       .  S
Zr19         O20   2.439       .  S
Zr19         O21   2.425       .  S
Zr19         O25   2.425       .  S
Zr19        O450   2.429       .  S
Zr19         O28   2.379       .  S
Zr19         O30   2.399       .  S
Zr19        O455   2.378       .  S
Zr19        O457   2.401       .  S
O20         H504   0.990       .  S
O20         H512   0.990       .  S
O21          C41   1.281       .  A
O22        Zr447   2.429   1_554  S
O22          C43   1.282       .  A
O23         Zr33   2.435       .  S
O23          C42   1.284       .  A
O24         Zr32   2.434       .  S
O24          C43   1.283       .  A
O25          C42   1.283       .  A
O26         Zr34   2.431       .  S
O26          C41   1.282       .  A
O27         Zr32   2.392       .  S
O27        Zr447   2.378   1_554  S
O27        Zr462   2.376   1_554  S
O28         Zr33   2.389       .  S
O28         Zr34   2.372       .  S
O28          H63   0.966       .  S
O29         Zr32   2.398       .  S
O29        Zr447   2.401   1_554  S
O29        Zr477   2.396       .  S
O29          H66   0.966       .  S
O30         Zr33   2.392       .  S
O30         Zr49   2.398       .  S
Zr31         O56   2.443       .  S
Zr31         O50   2.427       .  S
Zr31         O58   2.427       .  S
Zr31        O474   2.428       .  S
Zr31         O37   2.399       .  S
Zr31         O40   2.379       .  S
Zr31        O466   2.401       .  S
Zr31        O467   2.376       .  S
Zr32         O51   2.436       .  S
Zr32         O44   2.435       .  S
Zr32         O45   2.434       .  S
Zr32         O38   2.396       .  S
Zr32         O39   2.387       .  S
Zr33         O35   2.434       .  S
Zr33         O57   2.436       .  S
Zr33         O59   2.434       .  S
Zr33         O37   2.394       .  S
Zr33         O40   2.386       .  S
Zr34         O60   2.435       .  S
Zr34         O61   2.436       .  S
Zr34        O464   2.436       .  S
Zr34         O37   2.397       .  S
Zr34        O455   2.376       .  S
Zr34        O466   2.397       .  S
O35          H72   0.990       .  S
O36        Zr462   2.436   1_554  S
O36          H67   0.990       .  S
O36          H81   0.990       .  S
O38        Zr459   2.401   1_554  S
O38        Zr462   2.397   1_554  S
O38          H64   0.966       .  S
O39        Zr459   2.376   1_554  S
O39        Zr477   2.374       .  S
O40         Zr49   2.376       .  S
O40          H65   0.966       .  S
C41         C412   1.434       .  S
C42         C420   1.434       .  S
C43         C413   1.434       .  S
O44          H80   0.990       .  S
O45          C47   1.284       .  A
O46        Zr459   2.428   1_554  S
O46          C47   1.283       .  A
C47         C416   1.435       .  S
O48         Zr49   2.439       .  S
O48         H505   0.990       .  S
Zr49         O53   2.439       .  S
Zr49        O480   2.436       .  S
Zr49         O54   2.431       .  S
Zr49        O457   2.396       .  S
Zr49        O467   2.374       .  S
O50          C55   1.282       .  A
O51          H68   0.990       .  S
O51          H83   0.990       .  S
O52        Zr477   2.436       .  S
O52          H69   0.990       .  S
O53          H73   0.990       .  S
O53          H82   0.990       .  S
O54          C55   1.282       .  A
C55         C428   1.435       .  S
O56          H75   0.990       .  S
O56         H507   0.990       .  S
O57          H71   0.990       .  S
O57          H78   0.990       .  S
O58          C62   1.283       .  A
O59          C62   1.284       .  A
O60          H70   0.990       .  S
O61         H502   0.990       .  S
C62         C417   1.434       .  S
H74         O489   0.990   1_554  S
H76         O448   0.990   1_554  S
H77         O476   0.990       .  S
H79         O484   0.990   1_554  S
H84         O448   0.990   1_554  S
C85          C86   1.403       .  A
C85          C90   1.403       .  A
C85         C407   1.439       .  S
C86          C87   1.401       .  A
C86          H91   1.084       .  S
C87          C88   1.399       .  A
C87         C410   1.440       .  S
C88          C89   1.399       .  A
C88          H92   1.085       .  S
C89          C90   1.401       .  A
C89         C419   1.439       .  S
C90          H93   1.084       .  S
Zr94        O523   2.439       .  S
Zr94         O96   2.425       .  S
Zr94         O97   2.429       .  S
Zr94        O528   2.425       .  S
Zr94        O102   2.378       .  S
Zr94        O104   2.401       .  S
Zr94        O531   2.379       .  S
Zr94        O533   2.399       .  S
O95        Zr522   2.439       .  S
O95         H579   0.990   1_554  S
O95         H587   0.990   1_554  S
O96         C116   1.281       .  A
O97         C118   1.282       .  A
O98        Zr108   2.435       .  S
O98         C117   1.284       .  A
O99        Zr107   2.434       .  S
O99         C118   1.283       .  A
O100       Zr522   2.425       .  S
O100        C117   1.283       .  A
O101       Zr109   2.431       .  S
O101        C116   1.282       .  A
O102       Zr107   2.391       .  S
O102       Zr109   2.376       .  S
O103       Zr108   2.389       .  S
O103       Zr522   2.379       .  S
O103       Zr537   2.372       .  S
O103        H138   0.966       .  S
O104       Zr107   2.398       .  S
O104       Zr124   2.396       .  S
O104        H141   0.966       .  S
O105       Zr108   2.392       .  S
O105       Zr522   2.399       .  S
O105       Zr552   2.398   1_554  S
Zr106       O559   2.443       .  S
Zr106       O125   2.427       .  S
Zr106       O121   2.428       .  S
Zr106       O561   2.428       .  S
Zr106       O113   2.401       .  S
Zr106       O114   2.376       .  S
Zr106       O540   2.399       .  S
Zr106       O543   2.379       .  S
Zr107       O126   2.436       .  S
Zr107       O119   2.435       .  S
Zr107       O120   2.434       .  S
Zr107       O113   2.396       .  S
Zr107       O114   2.387       .  S
Zr108       O110   2.434       .  S
Zr108       O132   2.436       .  S
Zr108       O134   2.434       .  S
Zr108       O112   2.394       .  S
Zr108       O115   2.386       .  S
Zr109       O111   2.436       .  S
Zr109       O563   2.435       .  S
Zr109       O564   2.436       .  S
Zr109       O113   2.397       .  S
Zr109       O531   2.372       .  S
Zr109       O540   2.397       .  S
O110        H147   0.990       .  S
O111        H142   0.990       .  S
O111        H156   0.990       .  S
O112       Zr534   2.399   1_554  S
O112       Zr537   2.397       .  S
O113        H139   0.966       .  S
O114       Zr124   2.374       .  S
O115       Zr534   2.379   1_554  S
O115       Zr552   2.376   1_554  S
O115        H140   0.966       .  S
C116        C426   1.434       .  S
C117        C404   1.435       .  S
C118        C405   1.434       .  S
O119        H155   0.990       .  S
O120        C122   1.284       .  A
O121        C122   1.283       .  A
C122        C409   1.435       .  S
O123       Zr552   2.439       .  S
O123        H580   0.990       .  S
Zr124       O127   2.436       .  S
Zr124       O551   2.439       .  S
Zr124       O556   2.439       .  S
Zr124       O129   2.431       .  S
Zr124       O533   2.398       .  S
Zr124       O543   2.376       .  S
O125        C130   1.282       .  A
O126        H143   0.990       .  S
O126        H158   0.990       .  S
O127        H144   0.990       .  S
O128       Zr552   2.439   1_554  S
O128        H148   0.990       .  S
O128        H157   0.990       .  S
O129        C130   1.282       .  A
C130        C399   1.435       .  S
O131       Zr534   2.443       .  S
O131        H150   0.990   1_556  S
O131        H582   0.990       .  S
O132        H146   0.990       .  S
O132        H153   0.990       .  S
O133       Zr534   2.428   1_554  S
O133        C137   1.283       .  A
O134        C137   1.284       .  A
O135       Zr537   2.435       .  S
O135        H145   0.990       .  S
O136       Zr537   2.436       .  S
O136        H577   0.990   1_554  S
C137        C401   1.434       .  S
H149        O564   0.990       .  S
H151        O523   0.990       .  S
H152        O551   0.990       .  S
H154        O559   0.990       .  S
H159        O523   0.990       .  S
C160        C161   1.403   1_455  A
C160        C165   1.403       .  A
C160        C398   1.439       .  S
C161        C162   1.401       .  A
C161        H166   1.084       .  S
C162        C163   1.399   1_655  A
C162        C418   1.439       .  S
C163        C164   1.399       .  A
C163        H167   1.085       .  S
C164        C165   1.401       .  A
C164        C406   1.439       .  S
C165        H168   1.084       .  S
C169        C170   1.403       .  A
C169        C174   1.403       .  A
C169        C408   1.439       .  S
C170        C171   1.401       .  A
C170        H175   1.084       .  S
C171        C172   1.399       .  A
C171        C414   1.439       .  S
C172        C173   1.399       .  A
C172        H176   1.085       .  S
C173        C174   1.401       .  A
C173        C402   1.439       .  S
C174        H177   1.084       .  S
C178        C179   1.403   1_455  A
C178        C183   1.403       .  A
C178        C397   1.439       .  S
C179        C180   1.401       .  A
C179        H184   1.084       .  S
C180        C181   1.399       .  A
C180        C415   1.440       .  S
C181        C182   1.399   1_655  A
C181        H185   1.085       .  S
C182        C183   1.401       .  A
C182        C403   1.439       .  S
C183        H186   1.084       .  S
Zr187       O188   2.439       .  S
Zr187       O189   2.425   1_554  S
Zr187       O193   2.425       .  S
Zr187       O618   2.429   1_554  S
Zr187       O196   2.379       .  S
Zr187       O198   2.399       .  S
Zr187       O623   2.378   1_554  S
Zr187       O625   2.401   1_554  S
O188        H672   0.990   1_554  S
O188        H680   0.990   1_554  S
O189        C209   1.281       .  A
O190       Zr615   2.429       .  S
O190        C211   1.282       .  A
O191       Zr201   2.435       .  S
O191        C210   1.284       .  A
O192       Zr200   2.434       .  S
O192        C211   1.283       .  A
O193        C210   1.283       .  A
O194       Zr202   2.431   1_556  S
O194        C209   1.282       .  A
O195       Zr200   2.392       .  S
O195       Zr615   2.378       .  S
O195       Zr630   2.376       .  S
O196       Zr201   2.389       .  S
O196       Zr202   2.372       .  S
O196        H231   0.966       .  S
O197       Zr200   2.398       .  S
O197       Zr615   2.401       .  S
O197       Zr645   2.396       .  S
O197        H234   0.966       .  S
O198       Zr201   2.392       .  S
O198       Zr217   2.398   1_554  S
Zr199       O224   2.443       .  S
Zr199       O218   2.427   1_554  S
Zr199       O226   2.428       .  S
Zr199       O642   2.428   1_554  S
Zr199       O205   2.399       .  S
Zr199       O208   2.379       .  S
Zr199       O634   2.401   1_554  S
Zr199       O635   2.376   1_554  S
Zr200       O219   2.436       .  S
Zr200       O212   2.435       .  S
Zr200       O213   2.434       .  S
Zr200       O206   2.396       .  S
Zr200       O207   2.387       .  S
Zr201       O203   2.434       .  S
Zr201       O225   2.436       .  S
Zr201       O227   2.434       .  S
Zr201       O205   2.394       .  S
Zr201       O208   2.386       .  S
Zr202       O228   2.435       .  S
Zr202       O229   2.436       .  S
Zr202       O632   2.436   1_554  S
Zr202       O205   2.397       .  S
Zr202       O623   2.376   1_554  S
Zr202       O634   2.397   1_554  S
O203        H240   0.990       .  S
O204       Zr630   2.436       .  S
O204        H235   0.990       .  S
O204        H249   0.990       .  S
O206       Zr627   2.401       .  S
O206       Zr630   2.397       .  S
O206        H232   0.966       .  S
O207       Zr627   2.376       .  S
O207       Zr645   2.374       .  S
O208       Zr217   2.376   1_554  S
O208        H233   0.966       .  S
C209        C387   1.434       .  S
C210        C389   1.434       .  S
C211        C395   1.434       .  S
O212        H248   0.990       .  S
O213        C215   1.284       .  A
O214       Zr627   2.428       .  S
O214        C215   1.283       .  A
C215        C393   1.435       .  S
O216       Zr217   2.439       .  S
O216        H673   0.990       .  S
Zr217       O221   2.439   1_556  S
Zr217       O648   2.436       .  S
Zr217       O222   2.431       .  S
Zr217       O625   2.396       .  S
Zr217       O635   2.374       .  S
O218        C223   1.282       .  A
O219        H236   0.990       .  S
O219        H251   0.990       .  S
O220       Zr645   2.436       .  S
O220        H237   0.990       .  S
O221        H241   0.990       .  S
O221        H250   0.990       .  S
O222        C223   1.282       .  A
C223        C421   1.435       .  S
O224        H243   0.990       .  S
O224        H675   0.990   1_554  S
O225        H239   0.990       .  S
O225        H246   0.990       .  S
O226        C230   1.283       .  A
O227        C230   1.284       .  A
O228        H238   0.990       .  S
O229        H670   0.990   1_554  S
C230        C392   1.434       .  S
H242        O657   0.990       .  S
H244        O616   0.990       .  S
H245        O644   0.990       .  S
H247        O652   0.990       .  S
H252        O616   0.990       .  S
C253        C254   1.403       .  A
C253        C258   1.403       .  A
C253        C383   1.439       .  S
C254        C255   1.401       .  A
C254        H259   1.084       .  S
C255        C256   1.399       .  A
C255        C396   1.439       .  S
C256        C257   1.399       .  A
C256        H260   1.085       .  S
C257        C258   1.401       .  A
C257        C386   1.439       .  S
C258        H261   1.084       .  S
Zr262       O691   2.439   1_554  S
Zr262       O264   2.425       .  S
Zr262       O265   2.429       .  S
Zr262       O696   2.425   1_554  S
Zr262       O270   2.378       .  S
Zr262       O272   2.401       .  S
Zr262       O699   2.379   1_554  S
Zr262       O701   2.399   1_554  S
O263       Zr690   2.439       .  S
O263        H747   0.990       .  S
O263        H755   0.990       .  S
O264        C284   1.281       .  A
O265        C286   1.282       .  A
O266       Zr276   2.435       .  S
O266        C285   1.284       .  A
O267       Zr275   2.434       .  S
O267        C286   1.283       .  A
O268       Zr690   2.425       .  S
O268        C285   1.283       .  A
O269       Zr277   2.431   1_554  S
O269        C284   1.282       .  A
O270       Zr275   2.392       .  S
O270       Zr277   2.376   1_554  S
O271       Zr276   2.389       .  S
O271       Zr690   2.379       .  S
O271       Zr705   2.372       .  S
O271        H306   0.966       .  S
O272       Zr275   2.398       .  S
O272       Zr292   2.395       .  S
O272        H309   0.966       .  S
O273       Zr276   2.392       .  S
O273       Zr690   2.399       .  S
O273       Zr720   2.398       .  S
Zr274       O727   2.443       .  S
Zr274       O293   2.427       .  S
Zr274       O289   2.428       .  S
Zr274       O729   2.427   1_554  S
Zr274       O281   2.401       .  S
Zr274       O282   2.376       .  S
Zr274       O708   2.399   1_554  S
Zr274       O711   2.379   1_554  S
Zr275       O294   2.436       .  S
Zr275       O287   2.435       .  S
Zr275       O288   2.434       .  S
Zr275       O281   2.396       .  S
Zr275       O282   2.387       .  S
Zr276       O278   2.434       .  S
Zr276       O300   2.436       .  S
Zr276       O302   2.434       .  S
Zr276       O280   2.394       .  S
Zr276       O283   2.386       .  S
Zr277       O279   2.436   1_556  S
Zr277       O731   2.435       .  S
Zr277       O732   2.436       .  S
Zr277       O281   2.397   1_556  S
Zr277       O699   2.372       .  S
Zr277       O708   2.397       .  S
O278        H315   0.990       .  S
O279        H310   0.990       .  S
O279        H324   0.990       .  S
O280       Zr702   2.399       .  S
O280       Zr705   2.397       .  S
O281        H307   0.966       .  S
O282       Zr292   2.374       .  S
O283       Zr702   2.379       .  S
O283       Zr720   2.376       .  S
O283        H308   0.966       .  S
C284        C423   1.434       .  S
C285        C380   1.435       .  S
C286        C381   1.434       .  S
O287        H323   0.990       .  S
O288        C290   1.284       .  A
O289        C290   1.283       .  A
C290        C378   1.435       .  S
O291       Zr720   2.439       .  S
O291        H748   0.990       .  S
Zr292       O295   2.436       .  S
Zr292       O719   2.439       .  S
Zr292       O724   2.439   1_554  S
Zr292       O297   2.431       .  S
Zr292       O701   2.398   1_554  S
Zr292       O711   2.376   1_554  S
O293        C298   1.282       .  A
O294        H311   0.990       .  S
O294        H326   0.990       .  S
O295        H312   0.990       .  S
O296       Zr720   2.439       .  S
O296        H316   0.990       .  S
O296        H325   0.990       .  S
O297        C298   1.282       .  A
C298        C375   1.435       .  S
O299       Zr702   2.443       .  S
O299        H318   0.990       .  S
O299        H750   0.990       .  S
O300        H314   0.990       .  S
O300        H321   0.990       .  S
O301       Zr702   2.427       .  S
O301        C305   1.283       .  A
O302        C305   1.284       .  A
O303       Zr705   2.435       .  S
O303        H313   0.990       .  S
O304       Zr705   2.436       .  S
O304        H745   0.990       .  S
C305        C385   1.434       .  S
H317        O732   0.990   1_554  S
H319        O691   0.990   1_554  S
H320        O719   0.990       .  S
H322        O727   0.990       .  S
H327        O691   0.990   1_554  S
C328        C329   1.403       .  A
C328        C333   1.403   1_455  A
C328        C373   1.439       .  S
C329        C330   1.401       .  A
C329        H334   1.084       .  S
C330        C331   1.399       .  A
C330        C379   1.439       .  S
C331        C332   1.399   1_455  A
C331        H335   1.085       .  S
C332        C333   1.401       .  A
C332        C394   1.440       .  S
C333        H336   1.084       .  S
C337        C338   1.403       .  A
C337        C342   1.403       .  A
C337        C384   1.439       .  S
C338        C339   1.401       .  A
C338        H343   1.084       .  S
C339        C340   1.399       .  A
C339        C390   1.439       .  S
C340        C341   1.399       .  A
C340        H344   1.085       .  S
C341        C342   1.401       .  A
C341        C377   1.439       .  S
C342        H345   1.084       .  S
C346        C347   1.403   1_455  A
C346        C351   1.403       .  A
C346        C374   1.439       .  S
C347        C348   1.401       .  A
C347        H352   1.084       .  S
C348        C349   1.399   1_655  A
C348        C391   1.439       .  S
C349        C350   1.399       .  A
C349        H353   1.085       .  S
C350        C351   1.401       .  A
C350        C382   1.439       .  S
C351        H354   1.084       .  S
C355        C356   1.401   1_565  A
C355        C360   1.391       .  A
C355        C400   1.440       .  S
C356        C357   1.422       .  A
C356        H361   1.076       .  S
C357        C358   1.422       .  A
C357        C794   1.521       .  S
C358        C359   1.401   1_545  A
C358        H362   1.076       .  S
C359        C360   1.391       .  A
C359        C411   1.440       .  S
C360        H363   1.085       .  S
C364        C365   1.401       .  A
C364        C369   1.391   1_556  A
C364        C388   1.440       .  S
C365        C366   1.422   1_556  A
C365        H370   1.076       .  S
C366        C367   1.422       .  A
C366        C785   1.521       .  S
C367        C368   1.401       .  A
C367        H371   1.076       .  S
C368        C369   1.391       .  A
C368        C376   1.440       .  S
C369        H372   1.085       .  S
C373        C374   1.206       .  T
C375        C376   1.206       .  T
C377        C378   1.206       .  T
C379        C380   1.206       .  T
C381        C382   1.206       .  T
C383        C384   1.206       .  T
C385        C386   1.206       .  T
C387        C388   1.206       .  T
C389        C390   1.206       .  T
C391        C392   1.206       .  T
C393        C394   1.206       .  T
C395        C396   1.206       .  T
C397        C398   1.206       .  T
C399        C400   1.206       .  T
C401        C402   1.206       .  T
C403        C404   1.206       .  T
C405        C406   1.206       .  T
C407        C408   1.206       .  T
C409        C410   1.206       .  T
C411        C412   1.206       .  T
C413        C414   1.206       .  T
C415        C416   1.206       .  T
C417        C418   1.206       .  T
C419        C420   1.206       .  T
C421        C422   1.206       .  T
C423        C424   1.206       .  T
C425        C426   1.206       .  T
C427        C428   1.206       .  T
C429        C430   1.391   1_455  A
C429        C853   1.440       .  S
C430        C431   1.391   1_556  A
C430        H435   1.085       .  S
C431        C855   1.440       .  S
C432        C433   1.422       .  A
C432        H436   1.076       .  S
C433        C434   1.422   1_655  A
C433        C440   1.521       .  S
C434        H437   1.076       .  S
C438        C439   1.401       .  A
C438        C443   1.391       .  A
C438        C852   1.440       .  S
C439        C440   1.422   1_455  A
C439        H444   1.076       .  S
C440        C441   1.422       .  A
C441        C442   1.401       .  A
C441        H445   1.076       .  S
C442        C443   1.391   1_655  A
C442        C850   1.440       .  S
C443        H446   1.085       .  S
Zr447       O448   2.439       .  S
Zr447       O449   2.425   1_556  S
Zr447       O453   2.425       .  S
Zr447       O456   2.379       .  S
Zr447       O458   2.399       .  S
O449        C469   1.281       .  A
O450        C471   1.282       .  A
O451       Zr461   2.435       .  S
O451        C470   1.284       .  A
O452       Zr460   2.434       .  S
O452        C471   1.283       .  A
O453        C470   1.283       .  A
O454       Zr462   2.431   1_554  S
O454        C469   1.282       .  A
O455       Zr460   2.392       .  S
O456       Zr461   2.389       .  S
O456       Zr462   2.372       .  S
O456        H491   0.966       .  S
O457       Zr460   2.398       .  S
O457        H494   0.966       .  S
O458       Zr461   2.392       .  S
O458       Zr477   2.398   1_556  S
Zr459       O484   2.443       .  S
Zr459       O478   2.427   1_556  S
Zr459       O486   2.427       .  S
Zr459       O465   2.399       .  S
Zr459       O468   2.379       .  S
Zr460       O479   2.436       .  S
Zr460       O472   2.435       .  S
Zr460       O473   2.434       .  S
Zr460       O466   2.396       .  S
Zr460       O467   2.387       .  S
Zr461       O463   2.434       .  S
Zr461       O485   2.436       .  S
Zr461       O487   2.434       .  S
Zr461       O465   2.394       .  S
Zr461       O468   2.386       .  S
Zr462       O488   2.435       .  S
Zr462       O489   2.436       .  S
Zr462       O465   2.397       .  S
O463        H500   0.990       .  S
O464        H495   0.990       .  S
O464        H509   0.990       .  S
O466        H492   0.966       .  S
O468       Zr477   2.376   1_556  S
O468        H493   0.966       .  S
C469        C840   1.434       .  S
C470        C848   1.434       .  S
C471        C841   1.434       .  S
O472        H508   0.990       .  S
O473        C475   1.284       .  A
O474        C475   1.283       .  A
C475        C844   1.435       .  S
O476       Zr477   2.439       .  S
Zr477       O481   2.439   1_554  S
Zr477       O482   2.431       .  S
O478        C483   1.282       .  A
O479        H496   0.990       .  S
O479        H511   0.990       .  S
O480        H497   0.990       .  S
O481        H501   0.990       .  S
O481        H510   0.990       .  S
O482        C483   1.282       .  A
C483        C856   1.435       .  S
O484        H503   0.990       .  S
O485        H499   0.990       .  S
O485        H506   0.990       .  S
O486        C490   1.283       .  A
O487        C490   1.284       .  A
O488        H498   0.990       .  S
C490        C845   1.434       .  S
C513        C514   1.403       .  A
C513        C518   1.403       .  A
C513        C835   1.439       .  S
C514        C515   1.401       .  A
C514        H519   1.084       .  S
C515        C516   1.399       .  A
C515        C838   1.440       .  S
C516        C517   1.399       .  A
C516        H520   1.085       .  S
C517        C518   1.401       .  A
C517        C847   1.439       .  S
C518        H521   1.084       .  S
Zr522       O524   2.425   1_554  S
Zr522       O525   2.429   1_554  S
Zr522       O530   2.378   1_554  S
Zr522       O532   2.401   1_554  S
O524        C544   1.281       .  A
O525        C546   1.282       .  A
O526       Zr536   2.435       .  S
O526        C545   1.284       .  A
O527       Zr535   2.434       .  S
O527        C546   1.283       .  A
O528        C545   1.283       .  A
O529       Zr537   2.431   1_556  S
O529        C544   1.282       .  A
O530       Zr535   2.391       .  S
O530       Zr537   2.376   1_556  S
O531       Zr536   2.389       .  S
O531        H566   0.966       .  S
O532       Zr535   2.398       .  S
O532       Zr552   2.396       .  S
O532        H569   0.966       .  S
O533       Zr536   2.392       .  S
Zr534       O553   2.427       .  S
Zr534       O549   2.428       .  S
Zr534       O541   2.401       .  S
Zr534       O542   2.376       .  S
Zr535       O554   2.436       .  S
Zr535       O547   2.435       .  S
Zr535       O548   2.434       .  S
Zr535       O541   2.396       .  S
Zr535       O542   2.387       .  S
Zr536       O538   2.434       .  S
Zr536       O560   2.436       .  S
Zr536       O562   2.434       .  S
Zr536       O540   2.394       .  S
Zr536       O543   2.386       .  S
Zr537       O539   2.436   1_554  S
Zr537       O541   2.397   1_554  S
O538        H575   0.990       .  S
O539        H570   0.990       .  S
O539        H584   0.990       .  S
O541        H567   0.966       .  S
O542       Zr552   2.374       .  S
O543        H568   0.966       .  S
C544        C854   1.434       .  S
C545        C832   1.435       .  S
C546        C833   1.434       .  S
O547        H583   0.990       .  S
O548        C550   1.284       .  A
O549        C550   1.283       .  A
C550        C837   1.435       .  S
Zr552       O555   2.436       .  S
Zr552       O557   2.431       .  S
O553        C558   1.282       .  A
O554        H571   0.990       .  S
O554        H586   0.990       .  S
O555        H572   0.990       .  S
O556        H576   0.990       .  S
O556        H585   0.990       .  S
O557        C558   1.282       .  A
C558        C827   1.435       .  S
O559        H578   0.990       .  S
O560        H574   0.990       .  S
O560        H581   0.990       .  S
O561        C565   1.283       .  A
O562        C565   1.284       .  A
O563        H573   0.990       .  S
C565        C829   1.434       .  S
C588        C589   1.403   1_455  A
C588        C593   1.403       .  A
C588        C826   1.439       .  S
C589        C590   1.401       .  A
C589        H594   1.084       .  S
C590        C591   1.399   1_655  A
C590        C846   1.439       .  S
C591        C592   1.399       .  A
C591        H595   1.085       .  S
C592        C593   1.401       .  A
C592        C834   1.439       .  S
C593        H596   1.084       .  S
C597        C598   1.403       .  A
C597        C602   1.403       .  A
C597        C836   1.439       .  S
C598        C599   1.401       .  A
C598        H603   1.084       .  S
C599        C600   1.399       .  A
C599        C842   1.439       .  S
C600        C601   1.399       .  A
C600        H604   1.085       .  S
C601        C602   1.401       .  A
C601        C830   1.439       .  S
C602        H605   1.084       .  S
C606        C607   1.403   1_455  A
C606        C611   1.403       .  A
C606        C825   1.439       .  S
C607        C608   1.401       .  A
C607        H612   1.084       .  S
C608        C609   1.399       .  A
C608        C843   1.440       .  S
C609        C610   1.399   1_655  A
C609        H613   1.085       .  S
C610        C611   1.401       .  A
C610        C831   1.439       .  S
C611        H614   1.084       .  S
Zr615       O616   2.439       .  S
Zr615       O617   2.425       .  S
Zr615       O621   2.425       .  S
Zr615       O624   2.379       .  S
Zr615       O626   2.399       .  S
O617        C637   1.281       .  A
O618        C639   1.282       .  A
O619       Zr629   2.435       .  S
O619        C638   1.284       .  A
O620       Zr628   2.434       .  S
O620        C639   1.283       .  A
O621        C638   1.283       .  A
O622       Zr630   2.431       .  S
O622        C637   1.282       .  A
O623       Zr628   2.392       .  S
O624       Zr629   2.389       .  S
O624       Zr630   2.372       .  S
O624        H659   0.966       .  S
O625       Zr628   2.398       .  S
O625        H662   0.966       .  S
O626       Zr629   2.392       .  S
O626       Zr645   2.398       .  S
Zr627       O652   2.443       .  S
Zr627       O646   2.427       .  S
Zr627       O654   2.428       .  S
Zr627       O633   2.399       .  S
Zr627       O636   2.379       .  S
Zr628       O647   2.436       .  S
Zr628       O640   2.435       .  S
Zr628       O641   2.434       .  S
Zr628       O634   2.396       .  S
Zr628       O635   2.387       .  S
Zr629       O631   2.434       .  S
Zr629       O653   2.436       .  S
Zr629       O655   2.434       .  S
Zr629       O633   2.394       .  S
Zr629       O636   2.386       .  S
Zr630       O656   2.435       .  S
Zr630       O657   2.436       .  S
Zr630       O633   2.397       .  S
O631        H668   0.990       .  S
O632        H663   0.990       .  S
O632        H677   0.990       .  S
O634        H660   0.966       .  S
O636       Zr645   2.376       .  S
O636        H661   0.966       .  S
C637        C815   1.434       .  S
C638        C817   1.434       .  S
C639        C823   1.434       .  S
O640        H676   0.990       .  S
O641        C643   1.284       .  A
O642        C643   1.283       .  A
C643        C821   1.435       .  S
O644       Zr645   2.439       .  S
Zr645       O649   2.439       .  S
Zr645       O650   2.431       .  S
O646        C651   1.282       .  A
O647        H664   0.990       .  S
O647        H679   0.990       .  S
O648        H665   0.990       .  S
O649        H669   0.990       .  S
O649        H678   0.990       .  S
O650        C651   1.282       .  A
C651        C849   1.435       .  S
O652        H671   0.990       .  S
O653        H667   0.990       .  S
O653        H674   0.990       .  S
O654        C658   1.283       .  A
O655        C658   1.284       .  A
O656        H666   0.990       .  S
C658        C820   1.434       .  S
C681        C682   1.403       .  A
C681        C686   1.403       .  A
C681        C811   1.439       .  S
C682        C683   1.401       .  A
C682        H687   1.084       .  S
C683        C684   1.399       .  A
C683        C824   1.439       .  S
C684        C685   1.399       .  A
C684        H688   1.085       .  S
C685        C686   1.401       .  A
C685        C814   1.439       .  S
C686        H689   1.084       .  S
Zr690       O692   2.425       .  S
Zr690       O693   2.429       .  S
Zr690       O698   2.378       .  S
Zr690       O700   2.401       .  S
O692        C712   1.281       .  A
O693        C714   1.282       .  A
O694       Zr704   2.435       .  S
O694        C713   1.284       .  A
O695       Zr703   2.434       .  S
O695        C714   1.283       .  A
O696        C713   1.283       .  A
O697       Zr705   2.431       .  S
O697        C712   1.282       .  A
O698       Zr703   2.392       .  S
O698       Zr705   2.376       .  S
O699       Zr704   2.389       .  S
O699        H734   0.966       .  S
O700       Zr703   2.398       .  S
O700       Zr720   2.395       .  S
O700        H737   0.966       .  S
O701       Zr704   2.392       .  S
Zr702       O721   2.427       .  S
Zr702       O717   2.428       .  S
Zr702       O709   2.401       .  S
Zr702       O710   2.376       .  S
Zr703       O722   2.436       .  S
Zr703       O715   2.435       .  S
Zr703       O716   2.434       .  S
Zr703       O709   2.396       .  S
Zr703       O710   2.387       .  S
Zr704       O706   2.434       .  S
Zr704       O728   2.436       .  S
Zr704       O730   2.434       .  S
Zr704       O708   2.394       .  S
Zr704       O711   2.386       .  S
Zr705       O707   2.436       .  S
Zr705       O709   2.397       .  S
O706        H743   0.990       .  S
O707        H738   0.990       .  S
O707        H752   0.990       .  S
O709        H735   0.966       .  S
O710       Zr720   2.374       .  S
O711        H736   0.966       .  S
C712        C851   1.434       .  S
C713        C808   1.435       .  S
C714        C809   1.434       .  S
O715        H751   0.990       .  S
O716        C718   1.284       .  A
O717        C718   1.283       .  A
C718        C806   1.435       .  S
Zr720       O723   2.436       .  S
Zr720       O725   2.431       .  S
O721        C726   1.282       .  A
O722        H739   0.990       .  S
O722        H754   0.990       .  S
O723        H740   0.990       .  S
O724        H744   0.990       .  S
O724        H753   0.990       .  S
O725        C726   1.282       .  A
C726        C803   1.435       .  S
O727        H746   0.990   1_554  S
O728        H742   0.990       .  S
O728        H749   0.990       .  S
O729        C733   1.283       .  A
O730        C733   1.284       .  A
O731        H741   0.990       .  S
C733        C813   1.434       .  S
C756        C757   1.403       .  A
C756        C761   1.403   1_455  A
C756        C801   1.439       .  S
C757        C758   1.401       .  A
C757        H762   1.084       .  S
C758        C759   1.399       .  A
C758        C807   1.439       .  S
C759        C760   1.399   1_455  A
C759        H763   1.085       .  S
C760        C761   1.401       .  A
C760        C822   1.440       .  S
C761        H764   1.084       .  S
C765        C766   1.403       .  A
C765        C770   1.403       .  A
C765        C812   1.439       .  S
C766        C767   1.401       .  A
C766        H771   1.084       .  S
C767        C768   1.399       .  A
C767        C818   1.439       .  S
C768        C769   1.399       .  A
C768        H772   1.085       .  S
C769        C770   1.401       .  A
C769        C805   1.439       .  S
C770        H773   1.084       .  S
C774        C775   1.403   1_455  A
C774        C779   1.403       .  A
C774        C802   1.439       .  S
C775        C776   1.401       .  A
C775        H780   1.084       .  S
C776        C777   1.399   1_655  A
C776        C819   1.439       .  S
C777        C778   1.399       .  A
C777        H781   1.085       .  S
C778        C779   1.401       .  A
C778        C810   1.439       .  S
C779        H782   1.084       .  S
C783        C784   1.401   1_565  A
C783        C788   1.391       .  A
C783        C828   1.440       .  S
C784        C785   1.422   1_556  A
C784        H789   1.076       .  S
C785        C786   1.422       .  A
C786        C787   1.401   1_545  A
C786        H790   1.076       .  S
C787        C788   1.391   1_554  A
C787        C839   1.440       .  S
C788        H791   1.085       .  S
C792        C793   1.401       .  A
C792        C797   1.391       .  A
C792        C816   1.440       .  S
C793        C794   1.422       .  A
C793        H798   1.076       .  S
C794        C795   1.422       .  A
C795        C796   1.401       .  A
C795        H799   1.076       .  S
C796        C797   1.391       .  A
C796        C804   1.440       .  S
C797        H800   1.085       .  S
C801        C802   1.206       .  T
C803        C804   1.206       .  T
C805        C806   1.206       .  T
C807        C808   1.206       .  T
C809        C810   1.206       .  T
C811        C812   1.206       .  T
C813        C814   1.206       .  T
C815        C816   1.206       .  T
C817        C818   1.206       .  T
C819        C820   1.206       .  T
C821        C822   1.206       .  T
C823        C824   1.206       .  T
C825        C826   1.206       .  T
C827        C828   1.206       .  T
C829        C830   1.206       .  T
C831        C832   1.206       .  T
C833        C834   1.206       .  T
C835        C836   1.206       .  T
C837        C838   1.206       .  T
C839        C840   1.206       .  T
C841        C842   1.206       .  T
C843        C844   1.206       .  T
C845        C846   1.206       .  T
C847        C848   1.206       .  T
C849        C850   1.206       .  T
C851        C852   1.206       .  T
C853        C854   1.206       .  T
C855        C856   1.206       .  T
