geometry optimzed in LAMMPS
_audit_creation_date              2020-11-30 
_audit_creation_method            'lammps2cif' 
_symmetry_space_group_name_H-M    'P1' 
_symmetry_Int_Tables_number       1 
_symmetry_cell_setting            triclinic 
loop_ 
_symmetry_equiv_pos_as_xyz 
  x,y,z 
_cell_length_a                    32.52902480410295 
_cell_length_b                    32.14923144180951 
_cell_length_c                    36.525201654613504 
_cell_angle_alpha                 90.21105457325606 
_cell_angle_beta                  90.74524324847008 
_cell_angle_gamma                 119.46609315220391 
loop_ 
_atom_site_label 
_atom_site_type_symbol 
_atom_site_fract_x 
_atom_site_fract_y 
_atom_site_fract_z 
_atom_site_charge 
C1          C  0.99600781  0.04527795  0.42631627     0.03230
C2          C  0.45342505  0.50283952  0.41963024    -0.12920
C3          C  0.45385396  0.46068543  0.92757520     0.00730
C4          C  0.49464428  0.45849983  0.92121348    -0.11450
C5          C  0.03793690  0.00115451  0.92355389     0.03220
C6          C  0.03716495  0.04387280  0.41705428    -0.10870
H7          H  0.42051891  0.50306768  0.42314425     0.08810
H8          H  0.49248079  0.42473914  0.92763977     0.06340
H9          H  0.07075701  0.07631660  0.41702038     0.06190
C10         C  0.17196970  0.38762134  0.51182939     0.03230
C11         C  0.12971521  0.34612179  0.51968204    -0.12920
C12         C  0.12974482  0.30291877  0.51598284     0.00730
C13         C  0.17109035  0.30238592  0.52582665    -0.11450
C14         C  0.21367375  0.34336197  0.51718337     0.03220
C15         C  0.21330188  0.38650685  0.52253954    -0.10870
H16         H  0.09640989  0.34556606  0.51684281     0.08810
H17         H  0.16956250  0.26803694  0.52650276     0.06340
H18         H  0.24624786  0.41923986  0.52477333     0.06190
C19         C  0.34806874  0.16384896  0.09173684     0.03230
C20         C  0.30449738  0.12174480  0.08921283    -0.12920
C21         C  0.26365111  0.12392083  0.09609517     0.00730
C22         C  0.26389036  0.16631206  0.08903318    -0.11450
C23         C  0.30558349  0.20757185  0.09896874     0.03220
C24         C  0.34804434  0.20752877  0.09112540    -0.10870
H25         H  0.30274116  0.08781089  0.09463279     0.08810
H26         H  0.23067100  0.16621667  0.08978000     0.06340
H27         H  0.38158389  0.24001580  0.09362616     0.06190
C28         C  0.28667698  0.32197620  0.07706232     0.03230
C29         C  0.32956818  0.36424959  0.07338185    -0.12920
C30         C  0.36774154  0.36340431  0.05767945     0.00730
C31         C  0.36794194  0.32076787  0.05399390    -0.11450
C32         C  0.32509066  0.28031204  0.04579693     0.03220
C33         C  0.28297253  0.27957306  0.05960253    -0.10870
H34         H  0.33190287  0.39855931  0.07864697     0.08810
H35         H  0.40047809  0.32261279  0.04502686     0.06340
H36         H  0.24894403  0.24757423  0.05678158     0.06190
C37         C  0.38013822  0.36896514  0.36702994     0.03230
C38         C  0.33559168  0.36649616  0.36798304    -0.12920
C39         C  0.29679403  0.32735596  0.38385799     0.00730
C40         C  0.29941440  0.28558544  0.38851181    -0.11450
C41         C  0.34274075  0.28856516  0.39565874     0.03220
C42         C  0.38414526  0.33028234  0.38320175    -0.10870
H43         H  0.33247610  0.39744972  0.36066233     0.08810
H44         H  0.26852236  0.25283816  0.39584498     0.06340
H45         H  0.41855125  0.33326069  0.38698197     0.06190
C46         C  0.37064149  0.37832373  0.24681939     0.03230
C47         C  0.36102682  0.33102102  0.25224690    -0.12920
C48         C  0.31830028  0.29342887  0.23927695     0.00730
C49         C  0.28002398  0.30162017  0.23923976    -0.11450
C50         C  0.28835893  0.34458594  0.22414533     0.03220
C51         C  0.33428316  0.38508663  0.23003405    -0.10870
H52         H  0.38931386  0.32377293  0.25937002     0.08810
H53         H  0.24461194  0.27150805  0.23649992     0.06340
H54         H  0.34186663  0.42009878  0.22087488     0.06190
C55         C  0.18339489  0.46191673  0.07387703     0.03230
C56         C  0.14038172  0.45940528  0.06434325    -0.12920
C57         C  0.13948713  0.99641189  0.04549388     0.00730
C58         C  0.18128612  0.03783922  0.03808334    -0.11450
C59         C  0.22444673  0.03957744  0.03939503     0.03220
C60         C  0.22627735  0.00123256  0.05891823    -0.10870
H61         H  0.10717961  0.42769346  0.07014703     0.08810
H62         H  0.17920095  0.06703813  0.02547273     0.06340
H63         H  0.25968234  0.00193146  0.06245910     0.06190
C64         C  0.01502458  0.11971071  0.22998103     0.03230
C65         C  0.05695241  0.16556739  0.22510213    -0.12920
C66         C  0.05573504  0.19992777  0.20072113     0.00730
C67         C  0.01481046  0.18551583  0.18028757    -0.11450
C68         C  0.97425894  0.14246148  0.18582171     0.03220
C69         C  0.97380963  0.10956982  0.21033185    -0.10870
H70         H  0.08900227  0.17446544  0.24040370     0.08810
H71         H  0.01331620  0.20876134  0.15945643     0.06340
H72         H  0.44124959  0.07630236  0.21414799     0.06190
C73         C  0.12014641  0.48443689  0.24852982     0.03230
C74         C  0.16263507  0.52743974  0.24757683    -0.12920
C75         C  0.20062434  0.52939389  0.23017813     0.00730
C76         C  0.20421582  0.48861364  0.22629167    -0.11450
C77         C  0.16260904  0.44530859  0.22148309     0.03220
C78         C  0.11939615  0.44233028  0.23410834    -0.10870
H79         H  0.16390630  0.06114234  0.25329743     0.08810
H80         H  0.23698616  0.49296692  0.21544920     0.06340
H81         H  0.08626409  0.40929801  0.23117272     0.06190
O82         O  0.21404616  0.41415851  0.10179847    -0.81700
C83         C  0.09493228  0.24866605  0.19017070     0.97650
O84         O  0.08409259  0.27733891  0.17400477    -0.70820
O85         O  0.13093699  0.36985799  0.19053670    -0.74410
Al86       Al  0.11739959  0.33594987  0.14544363     1.48980
C87         C  0.16571372  0.41068354  0.19551973     0.92910
O88         O  0.24854480  0.37755090  0.19018470    -0.80630
O89         O  0.20822725  0.29109854  0.10203911    -0.74190
Al90       Al  0.22662975  0.39025319  0.14588932     1.90120
O91         O  0.22889303  0.30335236  0.17725520    -0.73260
O92         O  0.11332939  0.24595461  0.11516238    -0.73110
O93         O  0.13699274  0.25753106  0.18982064    -0.78770
O94         O  0.09277511  0.29961675  0.10096197    -0.76970
O95         O  0.17202322  0.33512031  0.14514633    -1.13100
O96         O  0.14181445  0.39570042  0.11602687    -0.72300
C97         C  0.17978422  0.42183150  0.09823520     0.98420
C98         C  0.25315944  0.34174783  0.19607761     0.94810
Al99       Al  0.17200084  0.27943899  0.14572012     1.55560
O100        O  0.20272805  0.42393850  0.17633668    -0.76920
C101        C  0.08487665  0.25708178  0.09871631     0.98980
C102        C  0.24929397  0.32611420  0.09889731     0.93860
O103        O  0.26035024  0.36508989  0.11628823    -0.82240
C104        C  0.04070805  0.21810940  0.07944648     0.03230
C105        C  0.03941464  0.17404555  0.07600409    -0.12920
C106        C  0.00209827  0.13569673  0.05812679     0.00730
C107        C  0.46148019  0.13782010  0.04903204    -0.11450
C108        C  0.46187148  0.18084641  0.04584439     0.03130
C109        C  0.50160263  0.22218250  0.06309203    -0.10870
H110        H  0.06999543  0.17064060  0.08337897     0.08810
H111        H  0.43150726  0.10634595  0.03758074     0.06340
H112        H  0.50329198  0.25661605  0.06224250     0.06190
C113        C  0.13600109  0.01252104  0.36764718     0.03230
C114        C  0.17196834  0.05429005  0.38660721    -0.12920
C115        C  0.21832597  0.05970430  0.39227844     0.00730
C116        C  0.22726235  0.02634736  0.37525913    -0.11450
C117        C  0.18967989  0.97982307  0.37284165     0.03220
C118        C  0.14683261  0.97590931  0.36008167    -0.10870
H119        H  0.16395466  0.08098993  0.39707649     0.08810
H120        H  0.26309210  0.03277622  0.37518561     0.06340
H121        H  0.12003362  0.44223739  0.34845493     0.06190
C122        C  0.48829271  0.11958866  0.36776423     0.03230
C123        C  0.53016971  0.16283987  0.37348651    -0.12920
C124        C  0.52876409  0.20269083  0.38683078     0.00730
C125        C  0.48652032  0.20335832  0.38657750    -0.11450
C126        C  0.44567952  0.16029866  0.39263317     0.03220
C127        C  0.44530832  0.11723650  0.38049432    -0.10870
H128        H  0.06407991  0.16427932  0.37161153     0.08810
H129        H  0.48785916  0.23639306  0.39509852     0.06340
H130        H  0.41340154  0.08301357  0.38233608     0.06190
O131        O  0.41683505  0.21346928  0.01512715    -0.81700
C132        C  0.25507378  0.09277784  0.41973549     0.97650
O133        O  0.28095548  0.07958237  0.43756990    -0.70820
O134        O  0.37268583  0.12721172  0.42501458    -0.74410
Al135      Al  0.33864300  0.11349409  0.46934026     1.48980
C136        C  0.41212749  0.16302956  0.41969676     0.92910
O137        O  0.37710773  0.24642638  0.42631350    -0.80630
O138        O  0.29399590  0.20355604  0.01479298    -0.74190
Al139      Al  0.39140965  0.22459678  0.47060427     1.90120
O140        O  0.30448188  0.22593008  0.44047413    -0.73260
O141        O  0.25078349  0.10888626  0.99967429    -0.73110
O142        O  0.25973543  0.13321350  0.42588113    -0.78770
O143        O  0.30301412  0.08704304  0.01307460    -0.76970
O144        O  0.33734366  0.16859710  0.47050064    -1.13100
O145        O  0.39704121  0.13964239  0.00088585    -0.72300
C146        C  0.42298137  0.17815819  0.01977509     0.98420
C147        C  0.34147767  0.25132729  0.42162080     0.94810
Al148      Al  0.28211120  0.16785036  0.47040227     1.55560
O149        O  0.42496674  0.20087439  0.43925169    -0.76920
C150        C  0.26191786  0.08067890  0.01666911     0.98980
C151        C  0.32822873  0.24504706  0.01949674     0.93860
O152        O  0.36618190  0.25772891  0.50142047    -0.82240
O153        O  0.08046316  0.03994276  0.35184668    -0.81700
C154        C  0.41728898  0.41772265  0.26038935     0.97650
O155        O  0.44468949  0.40699725  0.27798634    -0.70820
O156        O  0.03875846  0.45294842  0.26576460    -0.74410
Al157      Al  0.50117746  0.44155232  0.30823767     1.48980
C158        C  0.07991638  0.48817142  0.26450207     0.92910
O159        O  0.04602239  0.07706659  0.26341098    -0.80630
O160        O  0.45737595  0.03862888  0.34491240    -0.74190
Al161      Al  0.05671216  0.05313033  0.30778370     1.90120
O162        O  0.47167759  0.05537707  0.27149287    -0.73260
O163        O  0.41151927  0.44207393  0.33287853    -0.73110
O164        O  0.42659223  0.46060272  0.25945301    -0.78770
O165        O  0.46213809  0.41915128  0.35038458    -0.76970
O166        O  0.50164571  0.99805518  0.30666136    -1.13100
O167        O  0.05895162  0.46545143  0.33885679    -0.72300
C168        C  0.08872198  0.00543517  0.35353029     0.98420
C169        C  0.51099754  0.08233177  0.25635788     0.94810
Al170      Al  0.44692767  0.49908611  0.30271439     1.55560
O171        O  0.08924506  0.02751945  0.28000908    -0.76920
C172        C  0.42044603  0.41280463  0.35013909     0.98980
C173        C  0.99273726  0.07974905  0.34918001     0.93860
O174        O  0.03237847  0.08856590  0.33582299    -0.82240
C175        C  0.34714678  0.27678941  0.14258405    -0.21210
C176        C  0.30513610  0.23599586  0.13147319    -0.09250
C177        C  0.26821660  0.21551154  0.15722149     0.29610
C178        C  0.27705933  0.22874322  0.19377175    -0.21210
C179        C  0.31926853  0.26874422  0.20513505    -0.09260
C180        C  0.35455173  0.29284307  0.17872569     0.29610
F181        F  0.39615763  0.33256333  0.18709387    -0.19790
H182        H  0.37570689  0.29547811  0.12379786     0.17980
H183        H  0.24881323  0.20982885  0.21293429     0.17980
F184        F  0.22387979  0.18048545  0.14862698    -0.19780
C185        C  0.39046090  0.11967114  0.10943722    -0.21210
C186        C  0.38470797  0.16013163  0.11375193    -0.09250
C187        C  0.40368286  0.18868193  0.14571834     0.29610
C188        C  0.42302552  0.17443032  0.17323973    -0.21210
C189        C  0.43237407  0.13708522  0.16722429    -0.09260
C190        C  0.41558933  0.10910813  0.13543661     0.29610
F191        F  0.92581856  0.07368414  0.12870773    -0.19790
H192        H  0.37571942  0.09645912  0.08568586     0.17980
H193        H  0.43702358  0.19696202  0.19752002     0.17980
F194        F  0.40095693  0.22868523  0.15248240    -0.19780
C195        C  0.19833681  0.06439553  0.13330610    -0.21210
C196        C  0.24369045  0.10292970  0.13137628    -0.09250
C197        C  0.27187208  0.12073006  0.16370837     0.29610
C198        C  0.25661266  0.09807656  0.19649804    -0.21210
C199        C  0.21308389  0.05768144  0.19766834    -0.09260
C200        C  0.18291638  0.04130023  0.16634553     0.29610
F201        F  0.13965392  0.50181193  0.16715303    -0.19790
H202        H  0.17557823  0.05144207  0.10938607     0.17980
H203        H  0.27938755  0.11104146  0.22062443     0.17980
F204        F  0.31444062  0.16024335  0.16408922    -0.19780
C205        C  0.28600963  0.37899068  0.42985077    -0.21210
C206        C  0.26673967  0.33517874  0.41065251    -0.09250
C207        C  0.22896115  0.29537413  0.42672248     0.29610
C208        C  0.21922647  0.29634214  0.46349371    -0.21210
C209        C  0.23878655  0.33987906  0.48368723    -0.09260
C210        C  0.27346178  0.38127316  0.46595997     0.29610
F211        F  0.29926779  0.42325109  0.48423598    -0.19790
H212        H  0.31486636  0.41107725  0.41875418     0.17980
H213        H  0.19191713  0.26300933  0.47397904     0.17980
F214        F  0.20174139  0.25470057  0.40707770    -0.19780
C215        C  0.21864055  0.44900918  0.46472539    -0.21210
C216        C  0.17412440  0.41445529  0.47731971    -0.09250
C217        C  0.13578065  0.39721743  0.45153408     0.29610
C218        C  0.14275667  0.41321102  0.41567179    -0.21210
C219        C  0.18710684  0.44828059  0.40377456    -0.09260
C220        C  0.22584402  0.46169008  0.42812523     0.29610
F221        F  0.27111036  0.98723126  0.41740728    -0.19790
H222        H  0.24947572  0.46474494  0.48238576     0.17980
H223        H  0.11217051  0.39870980  0.39758801     0.17980
F224        F  0.09140481  0.36231133  0.45895830    -0.19780
C225        C  0.06412223  0.23331705  0.48487274    -0.21210
C226        C  0.10608331  0.27574569  0.48227982    -0.09250
C227        C  0.12451643  0.29270298  0.44701374     0.29610
C228        C  0.10065999  0.26768882  0.41560891    -0.21210
C229        C  0.05794142  0.22610155  0.41888788    -0.09260
C230        C  0.03957641  0.20889606  0.45373515     0.29610
F231        F  0.99728198  0.16876746  0.45774710    -0.19790
H232        H  0.05020639  0.21906388  0.51075383     0.17980
H233        H  0.11461718  0.28162060  0.38888226     0.17980
F234        F  0.16508537  0.33385564  0.44218865    -0.19780
C235        C  0.43214244  0.43138008  0.02783786    -0.21210
C236        C  0.38707164  0.39281617  0.02593232    -0.09250
C237        C  0.36434804  0.37524606  0.49168683     0.29610
C238        C  0.38604752  0.39786047  0.45994535    -0.21210
C239        C  0.43059914  0.43701119  0.96143586    -0.09260
C240        C  0.45420368  0.45260147  0.99572850     0.29610
F241        F  0.49837051  0.48906584  0.99864502    -0.19790
H242        H  0.45093441  0.44352226  0.05383671     0.17980
H243        H  0.36884103  0.38367122  0.43429477     0.17980
F244        F  0.32293697  0.33382618  0.48862734    -0.19780
C245        C  0.04765255  0.12783385  0.00883542    -0.21210
C246        C  0.01131011  0.10455540  0.03413444    -0.09250
C247        C  0.47234205  0.06103891  0.02400191     0.29610
C248        C  0.46306806  0.04945340  0.98719342    -0.21210
C249        C  0.99867103  0.07211787  0.96079892    -0.09260
C250        C  0.04100358  0.11275567  0.97233146     0.29610
F251        F  0.07529251  0.13952504  0.94831944    -0.19790
H252        H  0.07888712  0.16123298  0.01604313     0.17980
H253        H  0.42889137  0.01935588  0.98075267     0.17980
F254        F  0.43820386  0.03561731  0.04863217    -0.19780
C255        C  0.08766069  0.03794218  0.97911500    -0.21210
C256        C  0.07203219  0.00218545  0.95168143    -0.09250
C257        C  0.07412963  0.46040011  0.45940802     0.29610
C258        C  0.08692631  0.45328977  0.49444038    -0.21210
C259        C  0.09964323  0.98839681  0.02185200    -0.09260
C260        C  0.09417871  0.02808004  0.01484501     0.29610
F261        F  0.10402298  0.06160588  0.04138300    -0.19790
H262        H  0.08974486  0.07174943  0.97460246     0.17980
H263        H  0.09048348  0.42225177  0.49972916     0.17980
F264        F  0.06301167  0.42631379  0.43327792    -0.19780
C265        C  0.99601268  0.04528457  0.92631683     0.03230
C266        C  0.45342713  0.50284546  0.91963059    -0.12920
C267        C  0.45385349  0.46068072  0.42757657     0.00730
C268        C  0.49464431  0.45849595  0.42121522    -0.11450
C269        C  0.03793675  0.00115277  0.42355200     0.03220
C270        C  0.03716903  0.04387672  0.91705669    -0.10870
H271        H  0.42052129  0.50307426  0.92314432     0.08810
H272        H  0.49248205  0.42473620  0.42764308     0.06340
H273        H  0.07076227  0.07631923  0.91702450     0.06190
C274        C  0.17197075  0.38761863  0.01183071     0.03230
C275        C  0.12971647  0.34611892  0.01968345    -0.12920
C276        C  0.12974604  0.30291598  0.01598333     0.00730
C277        C  0.17109183  0.30238303  0.02582599    -0.11450
C278        C  0.21367495  0.34335912  0.01718228     0.03220
C279        C  0.21330329  0.38650395  0.02253948    -0.10870
H280        H  0.09641113  0.34556329  0.01684489     0.08810
H281        H  0.16956391  0.26803400  0.02650162     0.06340
H282        H  0.24624934  0.41923689  0.02477313     0.06190
C283        C  0.34807006  0.16384852  0.59173770     0.03230
C284        C  0.30449861  0.12174440  0.58921420    -0.12920
C285        C  0.26365252  0.12392063  0.59609685     0.00730
C286        C  0.26389183  0.16631180  0.58903456    -0.11450
C287        C  0.30558495  0.20757152  0.59897020     0.03220
C288        C  0.34804575  0.20752842  0.59112668    -0.10870
H289        H  0.30274242  0.08781050  0.59463420     0.08810
H290        H  0.23067251  0.16621649  0.58978121     0.06340
H291        H  0.38158535  0.24001539  0.59362747     0.06190
C292        C  0.28667731  0.32197579  0.57706370     0.03230
C293        C  0.32956899  0.36424900  0.57338443    -0.12920
C294        C  0.36774251  0.36340380  0.55768229     0.00730
C295        C  0.36794263  0.32076719  0.55399648    -0.11450
C296        C  0.32509133  0.28031172  0.54579877     0.03220
C297        C  0.28297303  0.27957279  0.55960384    -0.10870
H298        H  0.33190393  0.39855877  0.57864989     0.08810
H299        H  0.40047878  0.32261195  0.54502963     0.06340
H300        H  0.24894445  0.24757420  0.55678219     0.06190
C301        C  0.38013777  0.36896411  0.86702863     0.03230
C302        C  0.33559072  0.36649411  0.86798082    -0.12920
C303        C  0.29679315  0.32735350  0.88385550     0.00730
C304        C  0.29941423  0.28558336  0.88850919    -0.11450
C305        C  0.34274081  0.28856405  0.89565716     0.03220
C306        C  0.38414524  0.33028179  0.88320085    -0.10870
H307        H  0.33247464  0.39744729  0.86065977     0.08810
H308        H  0.26852231  0.25283559  0.89584170     0.06340
H309        H  0.41855145  0.33326090  0.88698187     0.06190
C310        C  0.37064106  0.37832332  0.74681963     0.03230
C311        C  0.36102599  0.33102069  0.75224830    -0.12920
C312        C  0.31829969  0.29342842  0.73927822     0.00730
C313        C  0.28002342  0.30161979  0.73924007    -0.11450
C314        C  0.28835862  0.34458548  0.72414526     0.03220
C315        C  0.33428294  0.38508611  0.73003378    -0.10870
H316        H  0.38931276  0.32377252  0.75937220     0.08810
H317        H  0.24461139  0.27150766  0.73650013     0.06340
H318        H  0.34186664  0.42009811  0.72087405     0.06190
C319        C  0.18339405  0.46191666  0.57387805     0.03230
C320        C  0.14038119  0.45940662  0.56434537    -0.12920
C321        C  0.13948906  0.99641442  0.54549419     0.00730
C322        C  0.18128850  0.03784355  0.53808859    -0.11450
C323        C  0.22444800  0.03957926  0.53939707     0.03220
C324        C  0.22627800  0.00123296  0.55891841    -0.10870
H325        H  0.10717886  0.42769472  0.57014850     0.08810
H326        H  0.17920458  0.06704533  0.52548198     0.06340
H327        H  0.25968266  0.00193092  0.56245837     0.06190
C328        C  0.01502556  0.11970959  0.72998082     0.03230
C329        C  0.05695297  0.16556660  0.72510216    -0.12920
C330        C  0.05573540  0.19992641  0.70072070     0.00730
C331        C  0.01481129  0.18551359  0.68028630    -0.11450
C332        C  0.97425997  0.14245909  0.68582043     0.03220
C333        C  0.97381073  0.10956796  0.71033109    -0.10870
H334        H  0.08900262  0.17446536  0.74040431     0.08810
H335        H  0.01331704  0.20875878  0.65945487     0.06340
H336        H  0.44125191  0.07630106  0.71414738     0.06190
C337        C  0.12014722  0.48443593  0.74853193     0.03230
C338        C  0.16263702  0.52743798  0.74758123    -0.12920
C339        C  0.20062586  0.52939208  0.73018185     0.00730
C340        C  0.20421611  0.48861126  0.72629408    -0.11450
C341        C  0.16260869  0.44530702  0.72148418     0.03220
C342        C  0.11939601  0.44232943  0.73410914    -0.10870
H343        H  0.16390853  0.06114229  0.75330037     0.08810
H344        H  0.23698631  0.49296415  0.71545162     0.06340
H345        H  0.08626341  0.40929800  0.73117209     0.06190
O346        O  0.21404518  0.41415780  0.60179867    -0.81700
C347        C  0.09493212  0.24866507  0.69017074     0.97650
O348        O  0.08409199  0.27733767  0.67400488    -0.70820
O349        O  0.13093606  0.36985692  0.69053683    -0.74410
Al350      Al  0.11739871  0.33594869  0.64544374     1.48980
C351        C  0.16571288  0.41068240  0.69552007     0.92910
O352        O  0.24854409  0.37755024  0.69018485    -0.80630
O353        O  0.20822691  0.29109809  0.60203914    -0.74190
Al354      Al  0.22662891  0.39025250  0.64588949     1.90120
O355        O  0.22889274  0.30335186  0.67725515    -0.73260
O356        O  0.11332890  0.24595353  0.61516238    -0.73110
O357        O  0.13699270  0.25753055  0.68982071    -0.78770
O358        O  0.09277418  0.29961537  0.60096206    -0.76970
O359        O  0.17202253  0.33511948  0.64514640    -1.13100
O360        O  0.14181333  0.39569929  0.61602702    -0.72300
C361        C  0.17978314  0.42183071  0.59823550     0.98420
C362        C  0.25315904  0.34174731  0.69607760     0.94810
Al363      Al  0.17200047  0.27943831  0.64572014     1.55560
O364        O  0.20272711  0.42393758  0.67633690    -0.76920
C365        C  0.08487601  0.25708049  0.59871626     0.98980
C366        C  0.24929370  0.32611378  0.59889774     0.93860
O367        O  0.26034960  0.36508946  0.61628854    -0.82240
C368        C  0.04070781  0.21810801  0.57944592     0.03230
C369        C  0.03941564  0.17404488  0.57600201    -0.12920
C370        C  0.00209936  0.13569596  0.55812462     0.00730
C371        C  0.46148122  0.13781936  0.54902995    -0.11450
C372        C  0.46187173  0.18084543  0.54584353     0.03130
C373        C  0.50160251  0.22218132  0.56309176    -0.10870
H374        H  0.06999701  0.17064062  0.58337618     0.08810
H375        H  0.43150882  0.10634531  0.53757793     0.06340
H376        H  0.50329121  0.25661460  0.56224310     0.06190
C377        C  0.13599773  0.01251667  0.86765391     0.03230
C378        C  0.17196916  0.05429005  0.88660688    -0.12920
C379        C  0.21832491  0.05970037  0.89228049     0.00730
C380        C  0.22725525  0.02633466  0.87526922    -0.11450
C381        C  0.18966971  0.97981152  0.87286172     0.03220
C382        C  0.14682247  0.97589734  0.86010075    -0.10870
H383        H  0.16396012  0.08099638  0.89706896     0.08810
H384        H  0.26308367  0.03275976  0.87519495     0.06340
H385        H  0.12003162  0.44223542  0.84845804     0.06190
C386        C  0.48829343  0.11958811  0.86776453     0.03230
C387        C  0.53017054  0.16283904  0.87348739    -0.12920
C388        C  0.52876500  0.20269006  0.88683157     0.00730
C389        C  0.48652139  0.20335785  0.88657801    -0.11450
C390        C  0.44568041  0.16029830  0.89263344     0.03220
C391        C  0.44530901  0.11723611  0.88049440    -0.10870
H392        H  0.06407996  0.16427820  0.87161195     0.08810
H393        H  0.48786037  0.23639266  0.89509901     0.06340
H394        H  0.41340208  0.08301326  0.88233586     0.06190
O395        O  0.41683487  0.21346859  0.51512747    -0.81700
C396        C  0.25507472  0.09277677  0.91973518     0.97650
O397        O  0.28095675  0.07958232  0.93757021    -0.70820
O398        O  0.37268682  0.12721137  0.92501497    -0.74410
Al399      Al  0.33864373  0.11349419  0.96934048     1.48980
C400        C  0.41212829  0.16302933  0.91969690     0.92910
O401        O  0.37710794  0.24642586  0.92631257    -0.80630
O402        O  0.29399650  0.20355619  0.51479438    -0.74190
Al403      Al  0.39140980  0.22459677  0.97060363     1.90120
O404        O  0.30448192  0.22592935  0.94047272    -0.73260
O405        O  0.25078351  0.10888681  0.49967543    -0.73110
O406        O  0.25973633  0.13321266  0.92587968    -0.78770
O407        O  0.30301403  0.08704298  0.51307454    -0.76970
O408        O  0.33734402  0.16859700  0.97050014    -1.13100
O409        O  0.39704078  0.13964184  0.50088538    -0.72300
C410        C  0.42298119  0.17815741  0.51977483     0.98420
C411        C  0.34147780  0.25132654  0.92161954     0.94810
Al412      Al  0.28211131  0.16784986  0.97040102     1.55560
O413        O  0.42496729  0.20087438  0.93925149    -0.76920
C414        C  0.26191823  0.08067962  0.51667006     0.98980
C415        C  0.32822935  0.24504712  0.51949817     0.93860
O416        O  0.36618146  0.25772872  0.00141930    -0.82240
O417        O  0.08046365  0.03994176  0.85184781    -0.81700
C418        C  0.41728887  0.41772232  0.76038898     0.97650
O419        O  0.44468946  0.40699698  0.77798591    -0.70820
O420        O  0.03875881  0.45294841  0.76576495    -0.74410
Al421      Al  0.50117727  0.44155201  0.80823733     1.48980
C422        C  0.07991694  0.48817114  0.76450296     0.92910
O423        O  0.04602369  0.07706642  0.76341181    -0.80630
O424        O  0.45737659  0.03862863  0.84491190    -0.74190
Al425      Al  0.05671289  0.05312969  0.80778463     1.90120
O426        O  0.47167957  0.05537702  0.77149272    -0.73260
O427        O  0.41151889  0.44207347  0.83287787    -0.73110
O428        O  0.42659228  0.46060242  0.75945238    -0.78770
O429        O  0.46213776  0.41915097  0.85038412    -0.76970
O430        O  0.50164706  0.99805497  0.80666165    -1.13100
O431        O  0.05895123  0.46545107  0.83885728    -0.72300
C432        C  0.08872123  0.00543333  0.85353246     0.98420
C433        C  0.51099975  0.08233187  0.75635817     0.94810
Al434      Al  0.44692747  0.49908576  0.80271376     1.55560
O435        O  0.08924631  0.02751919  0.78001041    -0.76920
C436        C  0.42044564  0.41280413  0.85013840     0.98980
C437        C  0.99273724  0.07974837  0.84917993     0.93860
O438        O  0.03237874  0.08856497  0.83582365    -0.82240
C439        C  0.34714826  0.27678831  0.64258620    -0.21210
C440        C  0.30513752  0.23599513  0.63147491    -0.09250
C441        C  0.26821761  0.21551078  0.65722291     0.29610
C442        C  0.27705970  0.22874244  0.69377318    -0.21210
C443        C  0.31926872  0.26874339  0.70513678    -0.09260
C444        C  0.35455263  0.29284188  0.67872785     0.29610
F445        F  0.39615865  0.33256180  0.68709640    -0.19790
H446        H  0.37570876  0.29547694  0.62380032     0.17980
H447        H  0.24881319  0.20982822  0.71293543     0.17980
F448        F  0.22388081  0.18048493  0.64862806    -0.19780
C449        C  0.39046277  0.11967071  0.60943628    -0.21210
C450        C  0.38470973  0.16013101  0.61375195    -0.09250
C451        C  0.40368476  0.18868059  0.64571865     0.29610
C452        C  0.42302743  0.17442826  0.67323955    -0.21210
C453        C  0.43237603  0.13708334  0.66722324    -0.09260
C454        C  0.41559136  0.10910714  0.63543513     0.29610
F455        F  0.92581999  0.07368316  0.62870545    -0.19790
H456        H  0.37572112  0.09645925  0.58568465     0.17980
H457        H  0.43702556  0.19695939  0.69752013     0.17980
F458        F  0.40095895  0.22868383  0.65248343    -0.19780
C459        C  0.19833796  0.06439667  0.63330839    -0.21210
C460        C  0.24369212  0.10292988  0.63137813    -0.09250
C461        C  0.27187421  0.12072994  0.66371003     0.29610
C462        C  0.25661485  0.09807662  0.69649980    -0.21210
C463        C  0.21308557  0.05768216  0.69767042    -0.09260
C464        C  0.18291756  0.04130163  0.66634787     0.29610
F465        F  0.13965295  0.50181185  0.66715791    -0.19790
H466        H  0.17557877  0.05144365  0.60938870     0.17980
H467        H  0.27939014  0.11104111  0.72062599     0.17980
F468        F  0.31444303  0.16024287  0.66409060    -0.19780
C469        C  0.28600781  0.37898797  0.92984797    -0.21210
C470        C  0.26673858  0.33517574  0.91065023    -0.09250
C471        C  0.22896097  0.29537092  0.92672085     0.29610
C472        C  0.21922699  0.29633930  0.96349222    -0.21210
C473        C  0.23878690  0.33987648  0.98368543    -0.09260
C474        C  0.27346073  0.38127072  0.96595736     0.29610
F475        F  0.29926632  0.42324929  0.98423264    -0.19790
H476        H  0.31486352  0.41107481  0.91875079     0.17980
H477        H  0.19191842  0.26300639  0.97397803     0.17980
F478        F  0.20174137  0.25469685  0.90707659    -0.19780
C479        C  0.21864013  0.44900877  0.96472789    -0.21210
C480        C  0.17412444  0.41445350  0.97732185    -0.09250
C481        C  0.13578059  0.39721547  0.95153631     0.29610
C482        C  0.14275625  0.41320975  0.91567422    -0.21210
C483        C  0.18710613  0.44828005  0.90377708    -0.09260
C484        C  0.22584342  0.46169046  0.92812789     0.29610
F485        F  0.27110242  0.98723890  0.91743658    -0.19790
H486        H  0.24947518  0.46474488  0.98238842     0.17980
H487        H  0.11217011  0.39870803  0.89759042     0.17980
F488        F  0.09140509  0.36230842  0.95896030    -0.19780
C489        C  0.06412257  0.23331531  0.98487299    -0.21210
C490        C  0.10608399  0.27574361  0.98228022    -0.09250
C491        C  0.12451702  0.29270132  0.94701418     0.29610
C492        C  0.10066047  0.26768759  0.91560928    -0.21210
C493        C  0.05794172  0.22610053  0.91888811    -0.09260
C494        C  0.03957648  0.20889489  0.95373532     0.29610
F495        F  0.99728178  0.16876660  0.95774710    -0.19790
H496        H  0.05020656  0.21906180  0.01075427     0.17980
H497        H  0.11461769  0.28161960  0.88888268     0.17980
F498        F  0.16508581  0.33385416  0.94218919    -0.19780
C499        C  0.43214340  0.43137874  0.52783978    -0.21210
C500        C  0.38707217  0.39281537  0.52593493    -0.09250
C501        C  0.36434849  0.37524708  0.99168388     0.29610
C502        C  0.38604794  0.39786314  0.95994281    -0.21210
C503        C  0.43059921  0.43700774  0.46143767    -0.09260
C504        C  0.45420427  0.45259913  0.49573003     0.29610
F505        F  0.49837118  0.48906364  0.49864585    -0.19790
H506        H  0.45093588  0.44352131  0.55383840     0.17980
H507        H  0.36884197  0.38367459  0.93429195     0.17980
F508        F  0.32293856  0.33382612  0.98862367    -0.19780
C509        C  0.04765084  0.12783254  0.50883176    -0.21210
C510        C  0.01131096  0.10455422  0.53413270    -0.09250
C511        C  0.47234310  0.06103668  0.52400244     0.29610
C512        C  0.46306746  0.04944846  0.48719443    -0.21210
C513        C  0.99866741  0.07211196  0.46079827    -0.09260
C514        C  0.04099935  0.11275232  0.47232826     0.29610
F515        F  0.07528550  0.13952176  0.44831433    -0.19790
H516        H  0.07888489  0.16123296  0.51603769     0.17980
H517        H  0.42889116  0.01934947  0.48075516     0.17980
F518        F  0.43820637  0.03561620  0.54863399    -0.19780
C519        C  0.08766326  0.03794441  0.47911080    -0.21210
C520        C  0.07203663  0.00218836  0.45167699    -0.09250
C521        C  0.07412657  0.46039744  0.95940668     0.29610
C522        C  0.08692282  0.45328633  0.99443899    -0.21210
C523        C  0.09964996  0.98840047  0.52184692    -0.09260
C524        C  0.09418332  0.02808260  0.51484035     0.29610
F525        F  0.10402260  0.06160606  0.54137933    -0.19790
H526        H  0.08974349  0.07175000  0.47459895     0.17980
H527        H  0.09047893  0.42224771  0.99972772     0.17980
F528        F  0.06300817  0.42631121  0.93327639    -0.19780
C529        C  0.99596307  0.54523936  0.42633731     0.03230
C530        C  0.45347382  0.00288574  0.41959667    -0.12920
C531        C  0.45388744  0.96072847  0.92755220     0.00730
C532        C  0.49468040  0.95853569  0.92121814    -0.11450
C533        C  0.03789616  0.50112187  0.92352218     0.03220
C534        C  0.03711420  0.54384007  0.41704329    -0.10870
H535        H  0.42056741  0.00311981  0.42308995     0.08810
H536        H  0.49249937  0.92476938  0.92764913     0.06340
H537        H  0.07070448  0.57628518  0.41699850     0.06190
C538        C  0.17194344  0.88740680  0.51200210     0.03230
C539        C  0.12969673  0.84588478  0.51982676    -0.12920
C540        C  0.12971921  0.80269012  0.51601549     0.00730
C541        C  0.17107299  0.80212844  0.52577697    -0.11450
C542        C  0.21364483  0.84312131  0.51714222     0.03220
C543        C  0.21328982  0.88625673  0.52261102    -0.10870
H544        H  0.09639137  0.84534260  0.51704985     0.08810
H545        H  0.16954000  0.76777507  0.52637918     0.06340
H546        H  0.24624183  0.91898095  0.52485825     0.06190
C547        C  0.34815534  0.66394480  0.09170803     0.03230
C548        C  0.30458221  0.62184598  0.08914539    -0.12920
C549        C  0.26373129  0.62401518  0.09602411     0.00730
C550        C  0.26398153  0.66641958  0.08899968    -0.11450
C551        C  0.30567328  0.70766572  0.09896255     0.03220
C552        C  0.34813687  0.70762777  0.09112240    -0.10870
H553        H  0.30281583  0.58790252  0.09454070     0.08810
H554        H  0.23076360  0.66632714  0.08974917     0.06340
H555        H  0.38167655  0.74011099  0.09364576     0.06190
C556        C  0.28667846  0.82198808  0.07704249     0.03230
C557        C  0.32955751  0.86426979  0.07334761    -0.12920
C558        C  0.36773268  0.86343578  0.05763847     0.00730
C559        C  0.36795015  0.82080810  0.05395250    -0.11450
C560        C  0.32510459  0.78034087  0.04576704     0.03220
C561        C  0.28298362  0.77958842  0.05958293    -0.10870
H562        H  0.33188010  0.89857471  0.07860987     0.08810
H563        H  0.40048881  0.82266474  0.04497841     0.06340
H564        H  0.24896025  0.74758155  0.05677150     0.06190
C565        C  0.38014649  0.86896609  0.36700942     0.03230
C566        C  0.33558889  0.86647382  0.36793059    -0.12920
C567        C  0.29678453  0.82731957  0.38378419     0.00730
C568        C  0.29942435  0.78556295  0.38846283    -0.11450
C569        C  0.34275486  0.78856585  0.39563675     0.03220
C570        C  0.38415944  0.83029391  0.38319437    -0.10870
H571        H  0.33246243  0.89741808  0.36059910     0.08810
H572        H  0.26853453  0.75281024  0.39579332     0.06340
H573        H  0.41856961  0.83328886  0.38699637     0.06190
C574        C  0.37065715  0.87833512  0.24682564     0.03230
C575        C  0.36104063  0.83103466  0.25226961    -0.12920
C576        C  0.31832364  0.79343956  0.23929046     0.00730
C577        C  0.28004278  0.80162434  0.23924025    -0.11450
C578        C  0.28837583  0.84458685  0.22413963     0.03220
C579        C  0.33429943  0.88509125  0.23002917    -0.10870
H580        H  0.38932523  0.82378864  0.25940658     0.08810
H581        H  0.24463353  0.77150790  0.23649784     0.06340
H582        H  0.34188310  0.92010052  0.22086247     0.06190
C583        C  0.18338006  0.96192092  0.07390047     0.03230
C584        C  0.14037234  0.95944640  0.06440639    -0.12920
C585        C  0.13948894  0.49634705  0.04540394     0.00730
C586        C  0.18127797  0.53777934  0.03798616    -0.11450
C587        C  0.22445882  0.53956859  0.03936176     0.03220
C588        C  0.22629770  0.50124685  0.05891500    -0.10870
H589        H  0.10716593  0.92774300  0.07021614     0.08810
H590        H  0.17917396  0.56694478  0.02533305     0.06340
H591        H  0.25971285  0.50197741  0.06249489     0.06190
C592        C  0.01500678  0.61969644  0.22998059     0.03230
C593        C  0.05694036  0.66554883  0.22510133    -0.12920
C594        C  0.05573395  0.69990700  0.20071217     0.00730
C595        C  0.01481655  0.68549378  0.18026870    -0.11450
C596        C  0.97425788  0.64244749  0.18580776     0.03220
C597        C  0.97379593  0.60955986  0.21032785    -0.10870
H598        H  0.08898576  0.67444535  0.24040888     0.08810
H599        H  0.01333060  0.70873646  0.15943101     0.06340
H600        H  0.44123174  0.57629911  0.21414796     0.06190
C601        C  0.12018727  0.98441953  0.24859096     0.03230
C602        C  0.16270910  0.02739865  0.24770301    -0.12920
C603        C  0.20068560  0.02934871  0.23028476     0.00730
C604        C  0.20424538  0.98855308  0.22637065    -0.11450
C605        C  0.16262122  0.94527147  0.22152272     0.03220
C606        C  0.11941209  0.94231453  0.23413622    -0.10870
H607        H  0.16379532  0.56117585  0.25312660     0.08810
H608        H  0.23701272  0.99289509  0.21553119     0.06340
H609        H  0.08626500  0.90930634  0.23115807     0.06190
O610        O  0.21403493  0.91415480  0.10180271    -0.81700
C611        C  0.09493294  0.74864724  0.19016722     0.97650
O612        O  0.08409322  0.77732171  0.17400481    -0.70820
O613        O  0.13093478  0.86983980  0.19054369    -0.74410
Al614      Al  0.11739666  0.83593531  0.14544846     1.48980
C615        C  0.16571454  0.91066201  0.19553469     0.92910
O616        O  0.24855666  0.87754679  0.19017842    -0.80630
O617        O  0.20823487  0.79109451  0.10203705    -0.74190
Al618      Al  0.22662815  0.89024690  0.14588861     1.90120
O619        O  0.22889932  0.80334571  0.17725457    -0.73260
O620        O  0.11333596  0.74594707  0.11515608    -0.73110
O621        O  0.13699405  0.75751366  0.18981696    -0.78770
O622        O  0.09277096  0.79960418  0.10096526    -0.76970
O623        O  0.17202370  0.83511058  0.14514715    -1.13100
O624        O  0.14180383  0.89568838  0.11603768    -0.72300
C625        C  0.17977095  0.92182545  0.09824571     0.98420
C626        C  0.25317133  0.84174415  0.19607288     0.94810
Al627      Al  0.17200592  0.77943081  0.14571758     1.55560
O628        O  0.20272664  0.92392450  0.17634710    -0.76920
C629        C  0.08488052  0.75707219  0.09871136     0.98980
C630        C  0.24929661  0.82611609  0.09888856     0.93860
O631        O  0.26034853  0.86509143  0.11627838    -0.82240
C632        C  0.04071822  0.71810071  0.07943128     0.03230
C633        C  0.03941393  0.67402917  0.07600887    -0.12920
C634        C  0.00210424  0.63568017  0.05812523     0.00730
C635        C  0.46150299  0.63781684  0.04899055    -0.11450
C636        C  0.46189490  0.68084430  0.04580694     0.03130
C637        C  0.50162411  0.72217867  0.06305958    -0.10870
H638        H  0.06998287  0.67061500  0.08340767     0.08810
H639        H  0.43153929  0.60634662  0.03752447     0.06340
H640        H  0.50331639  0.75661372  0.06220658     0.06190
C641        C  0.13602726  0.51255127  0.36757478     0.03230
C642        C  0.17195394  0.55427815  0.38660427    -0.12920
C643        C  0.21833358  0.55973620  0.39224663     0.00730
C644        C  0.22732987  0.52646824  0.37514427    -0.11450
C645        C  0.18977954  0.47993171  0.37262879     0.03220
C646        C  0.14693026  0.47601967  0.35988123    -0.10870
H647        H  0.16389285  0.58091161  0.39714793     0.08810
H648        H  0.26317331  0.53293620  0.37507470     0.06340
H649        H  0.11989739  0.94210032  0.34872387     0.06190
C650        C  0.48827643  0.61958278  0.36774583     0.03230
C651        C  0.53015150  0.66284193  0.37344633    -0.12920
C652        C  0.52874629  0.70269514  0.38678543     0.00730
C653        C  0.48650125  0.70335968  0.38653060    -0.11450
C654        C  0.44566509  0.66030034  0.39259987     0.03220
C655        C  0.44529445  0.61723365  0.38047563    -0.10870
H656        H  0.06406243  0.66428472  0.37156820     0.08810
H657        H  0.48783883  0.73639561  0.39504637     0.06340
H658        H  0.41339124  0.58300992  0.38233140     0.06190
O659        O  0.41684880  0.71346857  0.01510610    -0.81700
C660        C  0.25506801  0.59278605  0.41972243     0.97650
O661        O  0.28095101  0.57958390  0.43754791    -0.70820
O662        O  0.37267935  0.62722231  0.42498533    -0.74410
Al663      Al  0.33864872  0.61349850  0.46931449     1.48980
C664        C  0.41212401  0.66303593  0.41966956     0.92910
O665        O  0.37712119  0.74643524  0.42629992    -0.80630
O666        O  0.29401851  0.70357594  0.01477918    -0.74190
Al667      Al  0.39142283  0.72460330  0.47058705     1.90120
O668        O  0.30449407  0.72593971  0.44045887    -0.73260
O669        O  0.25080999  0.60890659  0.99966997    -0.73110
O670        O  0.25973307  0.63322091  0.42587726    -0.78770
O671        O  0.30303029  0.58704239  0.01305026    -0.76970
O672        O  0.33735380  0.66860489  0.47048362    -1.13100
O673        O  0.39705673  0.63964521  0.00085148    -0.72300
C674        C  0.42300003  0.67815857  0.01974340     0.98420
C675        C  0.34149109  0.75133524  0.42160574     0.94810
Al676      Al  0.28212501  0.66786328  0.47039280     1.55560
O677        O  0.42497393  0.70087776  0.43923072    -0.76920
C678        C  0.26193809  0.58068589  0.01665226     0.98980
C679        C  0.32824920  0.74506835  0.01947759     0.93860
O680        O  0.36620213  0.75774339  0.50140408    -0.82240
O681        O  0.08043956  0.53992914  0.35184050    -0.81700
C682        C  0.41730854  0.91773685  0.26038902     0.97650
O683        O  0.44471132  0.90701326  0.27798507    -0.70820
O684        O  0.03878522  0.95296004  0.26577606    -0.74410
Al685      Al  0.50119443  0.94156514  0.30824268     1.48980
C686        C  0.07994832  0.98817621  0.26452498     0.92910
O687        O  0.04599771  0.57704972  0.26340909    -0.80630
O688        O  0.45736084  0.53861322  0.34491734    -0.74190
Al689      Al  0.05669005  0.55311665  0.30777915     1.90120
O690        O  0.47165511  0.55536388  0.27149416    -0.73260
O691        O  0.41153352  0.94208775  0.33287384    -0.73110
O692        O  0.42661313  0.96061712  0.25945017    -0.78770
O693        O  0.46214998  0.91916569  0.35038563    -0.76970
O694        O  0.50162597  0.49804129  0.30665915    -1.13100
O695        O  0.05895703  0.96545753  0.33887262    -0.72300
C696        C  0.08871783  0.50543428  0.35350764     0.98420
C697        C  0.51097523  0.58231728  0.25635819     0.94810
Al698      Al  0.44694705  0.99910084  0.30271172     1.55560
O699        O  0.08921778  0.52750884  0.27999817    -0.76920
C700        C  0.42045744  0.91281594  0.35013347     0.98980
C701        C  0.99272006  0.57973547  0.34917688     0.93860
O702        O  0.03235940  0.58855106  0.33581818    -0.82240
C703        C  0.34721417  0.77686050  0.14259749    -0.21210
C704        C  0.30521055  0.73606864  0.13147418    -0.09250
C705        C  0.26828495  0.71556101  0.15721559     0.29610
C706        C  0.27711527  0.72877090  0.19376993    -0.21210
C707        C  0.31931569  0.76877225  0.20514607    -0.09260
C708        C  0.35460794  0.79288977  0.17874563     0.29610
F709        F  0.39621142  0.83260484  0.18712902    -0.19790
H710        H  0.37577481  0.79556654  0.12381380     0.17980
H711        H  0.24886403  0.70984241  0.21292579     0.17980
F712        F  0.22395358  0.68053295  0.14860892    -0.19780
C713        C  0.39051081  0.61972958  0.10940834    -0.21210
C714        C  0.38477103  0.66019677  0.11373371    -0.09250
C715        C  0.40373051  0.68872060  0.14571496     0.29610
C716        C  0.42304082  0.67443483  0.17323792    -0.21210
C717        C  0.43237914  0.63708478  0.16721210    -0.09260
C718        C  0.41561040  0.60913419  0.13541106     0.29610
F719        F  0.92582992  0.57370571  0.12867214    -0.19790
H720        H  0.37578185  0.59653678  0.08564587     0.17980
H721        H  0.43702925  0.69694742  0.19752861     0.17980
F722        F  0.40101496  0.72872710  0.15249260    -0.19780
C723        C  0.19837975  0.56446317  0.13319718    -0.21210
C724        C  0.24374526  0.60298537  0.13128956    -0.09250
C725        C  0.27190372  0.62076188  0.16363472     0.29610
C726        C  0.25660496  0.59810828  0.19641797    -0.21210
C727        C  0.21306136  0.55773326  0.19756897    -0.09260
C728        C  0.18292246  0.54136268  0.16623167     0.29610
F729        F  0.13965394  0.00174489  0.16728049    -0.19790
H730        H  0.17563934  0.55152741  0.10926612     0.17980
H731        H  0.27935945  0.61105834  0.22055611     0.17980
F732        F  0.31448066  0.66026316  0.16403875    -0.19780
C733        C  0.28592855  0.87890658  0.42976807    -0.21210
C734        C  0.26668098  0.83511749  0.41054249    -0.09250
C735        C  0.22888487  0.79529554  0.42657593     0.29610
C736        C  0.21914859  0.79620613  0.46335354    -0.21210
C737        C  0.23871703  0.83971108  0.48359217    -0.09260
C738        C  0.27336662  0.88114113  0.46588126     0.29610
F739        F  0.29914568  0.92311050  0.48417291    -0.19790
H740        H  0.31478214  0.91101074  0.41868934     0.17980
H741        H  0.19184269  0.76285457  0.47381474     0.17980
F742        F  0.20169148  0.75464416  0.40689866    -0.19780
C743        C  0.21855123  0.94897073  0.46499875    -0.21210
C744        C  0.17405477  0.91434079  0.47756327    -0.09250
C745        C  0.13570817  0.89712933  0.45178391     0.29610
C746        C  0.14268203  0.91314944  0.41592898    -0.21210
C747        C  0.18702312  0.94824601  0.40403982    -0.09260
C748        C  0.22575676  0.96170935  0.42841001     0.29610
F749        F  0.27119218  0.48715174  0.41709546    -0.19790
H750        H  0.24937673  0.96470748  0.48267167     0.17980
H751        H  0.11210223  0.89862425  0.39783906     0.17980
F752        F  0.09133412  0.86221432  0.45920327    -0.19780
C753        C  0.06407123  0.73317468  0.48484656    -0.21210
C754        C  0.10602931  0.77561085  0.48228701    -0.09250
C755        C  0.12445352  0.79264737  0.44703208     0.29610
C756        C  0.10060375  0.76768740  0.41560854    -0.21210
C757        C  0.05790025  0.72607680  0.41885749    -0.09260
C758        C  0.03953145  0.70880622  0.45369241     0.29610
F759        F  0.99724757  0.66865688  0.45767606    -0.19790
H760        H  0.05015434  0.71886079  0.51072587     0.17980
H761        H  0.11456058  0.78167139  0.38889200     0.17980
F762        F  0.16501533  0.83381722  0.44223728    -0.19780
C763        C  0.43212515  0.93142601  0.02781051    -0.21210
C764        C  0.38705986  0.89285623  0.02589584    -0.09250
C765        C  0.36434792  0.87528948  0.49164799     0.29610
C766        C  0.38605035  0.89791763  0.45990994    -0.21210
C767        C  0.43060647  0.93706235  0.96140797    -0.09260
C768        C  0.45419774  0.95265012  0.99570640     0.29610
F769        F  0.49836465  0.98911340  0.99863471    -0.19790
H770        H  0.45090851  0.94356567  0.05381295     0.17980
H771        H  0.36884557  0.88373897  0.43425543     0.17980
F772        F  0.32295134  0.83385505  0.48858213    -0.19780
C773        C  0.04766124  0.62776176  0.00887120    -0.21210
C774        C  0.01131873  0.60450605  0.03417255    -0.09250
C775        C  0.47234521  0.56098909  0.02405025     0.29610
C776        C  0.46305790  0.54939773  0.98724230    -0.21210
C777        C  0.99864740  0.57206081  0.96083735    -0.09260
C778        C  0.04099025  0.61269127  0.97236503     0.29610
F779        F  0.07526963  0.63946348  0.94834706    -0.19790
H780        H  0.07890775  0.66115217  0.01607642     0.17980
H781        H  0.42887661  0.51930337  0.98080793     0.17980
F782        F  0.43820490  0.53559062  0.04868488    -0.19780
C783        C  0.08764487  0.53789003  0.97906845    -0.21210
C784        C  0.07202377  0.50215737  0.95161851    -0.09250
C785        C  0.07411655  0.96042342  0.45949744     0.29610
C786        C  0.08690687  0.95333638  0.49453824    -0.21210
C787        C  0.09963769  0.48831912  0.02176968    -0.09260
C788        C  0.09415085  0.52799487  0.01479135     0.29610
F789        F  0.10398881  0.56149788  0.04134729    -0.19790
H790        H  0.08972852  0.57169919  0.97457312     0.17980
H791        H  0.09043407  0.92228565  0.49985002     0.17980
F792        F  0.06298737  0.92630838  0.43339055    -0.19780
C793        C  0.99596223  0.54523990  0.92633960     0.03230
C794        C  0.45347657  0.00289246  0.91959525    -0.12920
C795        C  0.45388819  0.96072371  0.42755470     0.00730
C796        C  0.49468215  0.95853333  0.42121967    -0.11450
C797        C  0.03789779  0.50112209  0.42352261     0.03220
C798        C  0.03711288  0.54384035  0.91704416    -0.10870
H799        H  0.42057098  0.00312852  0.92308741     0.08810
H800        H  0.49250416  0.92476866  0.42765206     0.06340
H801        H  0.07070326  0.57628530  0.91699901     0.06190
C802        C  0.17194285  0.88738618  0.01201854     0.03230
C803        C  0.12969711  0.84586226  0.01984131    -0.12920
C804        C  0.12971889  0.80266837  0.01601971     0.00730
C805        C  0.17107370  0.80210418  0.02577283    -0.11450
C806        C  0.21364422  0.84309845  0.01713810     0.03220
C807        C  0.21329090  0.88623305  0.02261730    -0.10870
H808        H  0.09639173  0.84532133  0.01707045     0.08810
H809        H  0.16954015  0.76775039  0.02636835     0.06340
H810        H  0.24624351  0.91895647  0.02486529     0.06190
C811        C  0.34815298  0.66394198  0.59170870     0.03230
C812        C  0.30457981  0.62184308  0.58914769    -0.12920
C813        C  0.26372921  0.62401261  0.59602707     0.00730
C814        C  0.26397920  0.66641677  0.58900199    -0.11450
C815        C  0.30567117  0.70766307  0.59896409     0.03220
C816        C  0.34813446  0.70762493  0.59112307    -0.10870
H817        H  0.30281381  0.58789988  0.59454349     0.08810
H818        H  0.23076132  0.66632442  0.58975188     0.06340
H819        H  0.38167424  0.74010816  0.59364564     0.06190
C820        C  0.28667951  0.82198823  0.57704389     0.03230
C821        C  0.32955985  0.86426920  0.57335097    -0.12920
C822        C  0.36773509  0.86343440  0.55764263     0.00730
C823        C  0.36795087  0.82080586  0.55395621    -0.11450
C824        C  0.32510479  0.78033985  0.54576926     0.03220
C825        C  0.28298400  0.77958847  0.55958414    -0.10870
H826        H  0.33188358  0.89857451  0.57861383     0.08810
H827        H  0.40048929  0.82266141  0.54498276     0.06340
H828        H  0.24896017  0.74758239  0.55677153     0.06190
C829        C  0.38014658  0.86896429  0.86700686     0.03230
C830        C  0.33558761  0.86646919  0.86792435    -0.12920
C831        C  0.29678263  0.82731342  0.88377587     0.00730
C832        C  0.29942477  0.78555837  0.88845673    -0.11450
C833        C  0.34275582  0.78856425  0.89563421     0.03220
C834        C  0.38416037  0.83029358  0.88319355    -0.10870
H835        H  0.33245980  0.89741226  0.86059141     0.08810
H836        H  0.26853524  0.75280475  0.89578635     0.06340
H837        H  0.41857108  0.83329062  0.88699826     0.06190
C838        C  0.37065848  0.87833557  0.74682528     0.03230
C839        C  0.36104117  0.83103502  0.75227009    -0.12920
C840        C  0.31832391  0.79344000  0.73929127     0.00730
C841        C  0.28004347  0.80162547  0.73924027    -0.11450
C842        C  0.28837715  0.84458793  0.72413914     0.03220
C843        C  0.33430111  0.88509201  0.73002841    -0.10870
H844        H  0.38932537  0.82378858  0.75940751     0.08810
H845        H  0.24463406  0.77150928  0.73649793     0.06340
H846        H  0.34188527  0.92010125  0.72086126     0.06190
C847        C  0.18338041  0.96192131  0.57390018     0.03230
C848        C  0.14037302  0.95944702  0.56440499    -0.12920
C849        C  0.13948906  0.49634974  0.54540748     0.00730
C850        C  0.18127850  0.53778245  0.53799142    -0.11450
C851        C  0.22445835  0.53956924  0.53936384     0.03220
C852        C  0.22629677  0.50124624  0.55891548    -0.10870
H853        H  0.10716642  0.92774252  0.57021223     0.08810
H854        H  0.17917536  0.56694981  0.52534089     0.06340
H855        H  0.25971148  0.50197543  0.56249371     0.06190
C856        C  0.01500791  0.61969663  0.72998034     0.03230
C857        C  0.05694132  0.66554928  0.72510139    -0.12920
C858        C  0.05573510  0.69990709  0.70071166     0.00730
C859        C  0.01481830  0.68549311  0.68026723    -0.11450
C860        C  0.97425965  0.64244677  0.68580620     0.03220
C861        C  0.97379739  0.60955959  0.71032692    -0.10870
H862        H  0.08898639  0.67444631  0.74040961     0.08810
H863        H  0.01333257  0.70873553  0.65942919     0.06340
H864        H  0.44123279  0.57629793  0.71414589     0.06190
C865        C  0.12018890  0.98441967  0.74859230     0.03230
C866        C  0.16271102  0.02739862  0.74770519    -0.12920
C867        C  0.20068744  0.02934890  0.73028659     0.00730
C868        C  0.20424680  0.98855311  0.72637161    -0.11450
C869        C  0.16262241  0.94527181  0.72152316     0.03220
C870        C  0.11941342  0.94231492  0.73413679    -0.10870
H871        H  0.16379856  0.56117434  0.75313266     0.08810
H872        H  0.23701404  0.99289507  0.71553196     0.06340
H873        H  0.08626617  0.90930699  0.73115810     0.06190
O874        O  0.21403491  0.91415486  0.60180225    -0.81700
C875        C  0.09493376  0.74864780  0.69016720     0.97650
O876        O  0.08409375  0.77732212  0.67400482    -0.70820
O877        O  0.13093556  0.86984042  0.69054372    -0.74410
Al878      Al  0.11739718  0.83593599  0.64544846     1.48980
C879        C  0.16571537  0.91066264  0.69553466     0.92910
O880        O  0.24855760  0.87754786  0.69017816    -0.80630
O881        O  0.20823527  0.79109539  0.60203681    -0.74190
Al882      Al  0.22662865  0.89024765  0.64588831     1.90120
O883        O  0.22890023  0.80334674  0.67725430    -0.73260
O884        O  0.11333634  0.74594786  0.61515608    -0.73110
O885        O  0.13699502  0.75751469  0.68981699    -0.78770
O886        O  0.09277164  0.79960519  0.60096518    -0.76970
O887        O  0.17202427  0.83511134  0.64514707    -1.13100
O888        O  0.14180407  0.89568905  0.61603759    -0.72300
C889        C  0.17977098  0.92182561  0.59824526     0.98420
C890        C  0.25317245  0.84174527  0.69607251     0.94810
Al891      Al  0.17200656  0.77943167  0.64571746     1.55560
O892        O  0.20272723  0.92392532  0.67634675    -0.76920
C893        C  0.08488102  0.75707317  0.59871134     0.98980
C894        C  0.24929719  0.82611679  0.59888869     0.93860
O895        O  0.26034902  0.86509218  0.61627834    -0.82240
C896        C  0.04071871  0.71810191  0.57943121     0.03230
C897        C  0.03941607  0.67403148  0.57600618    -0.12920
C898        C  0.00210620  0.63568267  0.55812263     0.00730
C899        C  0.46150428  0.63781749  0.54898922    -0.11450
C900        C  0.46189442  0.68084425  0.54580765     0.03130
C901        C  0.50162279  0.72217836  0.56306136    -0.10870
H902        H  0.06998608  0.67061825  0.58340304     0.08810
H903        H  0.43154098  0.60634711  0.53752288     0.06340
H904        H  0.50331348  0.75661272  0.56221041     0.06190
C905        C  0.13602668  0.51255058  0.86757567     0.03230
C906        C  0.17195407  0.55427803  0.88660413    -0.12920
C907        C  0.21833354  0.55973562  0.89224642     0.00730
C908        C  0.22732894  0.52646660  0.87514485    -0.11450
C909        C  0.18977823  0.47993019  0.87263075     0.03220
C910        C  0.14692879  0.47601805  0.85988343    -0.10870
H911        H  0.16389364  0.58091230  0.89714705     0.08810
H912        H  0.26317222  0.53293413  0.87507488     0.06340
H913        H  0.11988347  0.94208562  0.84874983     0.06190
C914        C  0.48827556  0.61958273  0.86774403     0.03230
C915        C  0.53015041  0.66284235  0.87344344    -0.12920
C916        C  0.52874504  0.70269538  0.88678272     0.00730
C917        C  0.48649998  0.70335978  0.88652763    -0.11450
C918        C  0.44566416  0.66030039  0.89259767     0.03220
C919        C  0.44529365  0.61723354  0.88047399    -0.10870
H920        H  0.06406168  0.66428597  0.87156535     0.08810
H921        H  0.48783747  0.73639570  0.89504329     0.06340
H922        H  0.41339075  0.58300969  0.88233060     0.06190
O923        O  0.41684809  0.71346854  0.51510711    -0.81700
C924        C  0.25506852  0.59278590  0.91972172     0.97650
O925        O  0.28095152  0.57958386  0.93754728    -0.70820
O926        O  0.37267942  0.62722252  0.92498413    -0.74410
Al927      Al  0.33864951  0.61349869  0.96931348     1.48980
C928        C  0.41212399  0.66303607  0.91966813     0.92910
O929        O  0.37712221  0.74643525  0.92629911    -0.80630
O930        O  0.29401799  0.70357543  0.51478056    -0.74190
Al931      Al  0.39142364  0.72460343  0.97058612     1.90120
O932        O  0.30449485  0.72593972  0.94045738    -0.73260
O933        O  0.25080871  0.60890606  0.49967091    -0.73110
O934        O  0.25973393  0.63322096  0.92587618    -0.78770
O935        O  0.30302915  0.58704207  0.51305112    -0.76970
O936        O  0.33735461  0.66860512  0.97048265    -1.13100
O937        O  0.39705551  0.63964497  0.50085283    -0.72300
C938        C  0.42299902  0.67815839  0.51974461     0.98420
C939        C  0.34149204  0.75133492  0.92160436     0.94810
Al940      Al  0.28212586  0.66786355  0.97039164     1.55560
O941        O  0.42497455  0.70087778  0.93922963    -0.76920
C942        C  0.26193703  0.58068568  0.51665337     0.98980
C943        C  0.32824879  0.74506780  0.51947904     0.93860
O944        O  0.36620282  0.75774364  0.00140303    -0.82240
O945        O  0.08043927  0.53992880  0.85184105    -0.81700
C946        C  0.41731028  0.91773710  0.76038838     0.97650
O947        O  0.44471294  0.90701332  0.77798439    -0.70820
O948        O  0.03878665  0.95296004  0.76577657    -0.74410
Al949      Al  0.50119558  0.94156484  0.80824275     1.48980
C950        C  0.07994979  0.98817619  0.76452606     0.92910
O951        O  0.04599841  0.57704973  0.76340926    -0.80630
O952        O  0.45736039  0.53861276  0.84491668    -0.74190
Al953      Al  0.05669027  0.55311650  0.80777947     1.90120
O954        O  0.47165521  0.55536363  0.77149344    -0.73260
O955        O  0.41153431  0.94208738  0.83287304    -0.73110
O956        O  0.42661520  0.96061745  0.75944957    -0.78770
O957        O  0.46215039  0.91916498  0.85038511    -0.76970
O958        O  0.50162575  0.49804094  0.80665874    -1.13100
O959        O  0.05895678  0.96545633  0.83887364    -0.72300
C960        C  0.08871743  0.50543385  0.85350826     0.98420
C961        C  0.51097549  0.58231693  0.75635759     0.94810
Al962      Al  0.44694847  0.99910076  0.80271133     1.55560
O963        O  0.08921826  0.52750864  0.77999887    -0.76920
C964        C  0.42045786  0.91281516  0.85013243     0.98980
C965        C  0.99271995  0.57973519  0.84917670     0.93860
O966        O  0.03235939  0.58855087  0.83581817    -0.82240
C967        C  0.34721350  0.77685773  0.64259901    -0.21210
C968        C  0.30520945  0.73606608  0.63147606    -0.09250
C969        C  0.26828424  0.71555899  0.65721786     0.29610
C970        C  0.27711500  0.72876976  0.69377204    -0.21210
C971        C  0.31931562  0.76877127  0.70514761    -0.09260
C972        C  0.35460776  0.79288775  0.67874693     0.29610
F973        F  0.39621156  0.83260270  0.68712983    -0.19790
H974        H  0.37577413  0.79556319  0.62381526     0.17980
H975        H  0.24886389  0.70984203  0.71292815     0.17980
F976        F  0.22395265  0.68053101  0.64861169    -0.19780
C977        C  0.39051024  0.61972783  0.60940673    -0.21210
C978        C  0.38476995  0.66019460  0.61373297    -0.09250
C979        C  0.40373043  0.68871856  0.64571400     0.29610
C980        C  0.42304229  0.67443332  0.67323610    -0.21210
C981        C  0.43238072  0.63708347  0.66720955    -0.09260
C982        C  0.41561120  0.60913290  0.63540855     0.29610
F983        F  0.92583093  0.57370504  0.62867057    -0.19790
H984        H  0.37578060  0.59653507  0.58564430     0.17980
H985        H  0.43703134  0.69694593  0.69752673     0.17980
F986        F  0.40101446  0.72872470  0.65249227    -0.19780
C987        C  0.19837836  0.56446219  0.63320143    -0.21210
C988        C  0.24374416  0.60298364  0.63129295    -0.09250
C989        C  0.27190378  0.62076002  0.66363756     0.29610
C990        C  0.25660596  0.59810644  0.69642101    -0.21210
C991        C  0.21306205  0.55773178  0.69757274    -0.09260
C992        C  0.18292194  0.54136188  0.66623604     0.29610
F993        F  0.13965463  0.00174700  0.66728304    -0.19790
H994        H  0.17563697  0.55152674  0.60927089     0.17980
H995        H  0.27936137  0.61105619  0.72055866     0.17980
F996        F  0.31448099  0.66026102  0.66404078    -0.19780
C997        C  0.28591970  0.87889649  0.92975839    -0.21210
C998        C  0.26667472  0.83510888  0.91053122    -0.09250
C999        C  0.22887815  0.79528537  0.92656244     0.29610
C1000       C  0.21914270  0.79619174  0.96334076    -0.21210
C1001       C  0.23871184  0.83969438  0.98358272    -0.09260
C1002       C  0.27335773  0.88112748  0.96587216     0.29610
F1003       F  0.29913424  0.92309689  0.98416420    -0.19790
H1004       H  0.31477200  0.91100231  0.91868043     0.17980
H1005       H  0.19183798  0.76283857  0.97380059     0.17980
F1006       F  0.20168707  0.75463519  0.90688316    -0.19780
C1007       C  0.21854325  0.94896711  0.96502471    -0.21210
C1008       C  0.17404906  0.91432937  0.97758657    -0.09250
C1009       C  0.13570187  0.89711983  0.95180803     0.29610
C1010       C  0.14267478  0.91314308  0.91595401    -0.21210
C1011       C  0.18701482  0.94824225  0.90406527    -0.09260
C1012       C  0.22574846  0.96171110  0.92843703     0.29610
F1013       F  0.27119158  0.48715321  0.91709838    -0.19790
H1014       H  0.24936799  0.96470433  0.98269866     0.17980
H1015       H  0.11209536  0.89861536  0.89786374     0.17980
F1016       F  0.09132866  0.86220227  0.95922664    -0.19780
C1017       C  0.06406723  0.73316174  0.98484580    -0.21210
C1018       C  0.10602579  0.77559772  0.98228910    -0.09250
C1019       C  0.12444907  0.79264113  0.94703509     0.29610
C1020       C  0.10059940  0.76768625  0.91560999    -0.21210
C1021       C  0.05789669  0.72607430  0.91885640    -0.09260
C1022       C  0.03952743  0.70879831  0.95369028     0.29610
F1023       F  0.99724408  0.66864768  0.95767156    -0.19790
H1024       H  0.05014992  0.71884267  0.01072531     0.17980
H1025       H  0.11455620  0.78167470  0.88889429     0.17980
F1026       F  0.16501016  0.83381253  0.94224279    -0.19780
C1027       C  0.43212913  0.93142314  0.52781366    -0.21210
C1028       C  0.38706286  0.89285454  0.52589983    -0.09250
C1029       C  0.36434605  0.87529105  0.99164362     0.29610
C1030       C  0.38604806  0.89792141  0.95990594    -0.21210
C1031       C  0.43060906  0.93705784  0.46141103    -0.09260
C1032       C  0.45420122  0.95264642  0.49570903     0.29610
F1033       F  0.49836814  0.98911006  0.49863631    -0.19790
H1034       H  0.45091314  0.94356296  0.55381582     0.17980
H1035       H  0.36884378  0.88374345  0.93425100     0.17980
F1036       F  0.32295173  0.83385436  0.98857706    -0.19780
C1037       C  0.04766119  0.62776722  0.50886545    -0.21210
C1038       C  0.01132046  0.60451026  0.53416801    -0.09250
C1039       C  0.47234809  0.56099073  0.52404754     0.29610
C1040       C  0.46305851  0.54939599  0.48724031    -0.21210
C1041       C  0.99864767  0.57206232  0.46083359    -0.09260
C1042       C  0.04098981  0.61269466  0.47235977     0.29610
F1043       F  0.07526813  0.63946619  0.44834088    -0.19790
H1044       H  0.07890662  0.66115909  0.51606955     0.17980
H1045       H  0.42887764  0.51929983  0.48080791     0.17980
F1046       F  0.43821033  0.53559271  0.54868406    -0.19780
C1047       C  0.08764495  0.53789181  0.47906942    -0.21210
C1048       C  0.07202528  0.50215905  0.45161962    -0.09250
C1049       C  0.07410629  0.96041760  0.95950361     0.29610
C1050       C  0.08689445  0.95333000  0.99454497    -0.21210
C1051       C  0.09963967  0.48832235  0.52177110    -0.09260
C1052       C  0.09415224  0.52799767  0.51479230     0.29610
F1053       F  0.10398828  0.56150023  0.54134821    -0.19790
H1054       H  0.08972600  0.57169986  0.47457417     0.17980
H1055       H  0.09041718  0.92227702  0.99985818     0.17980
F1056       F  0.06297578  0.92630106  0.93339774    -0.19780
C1057       C  0.49600917  0.04528003  0.42631625     0.03230
C1058       C  0.95342657  0.50284198  0.41962950    -0.12920
C1059       C  0.95385290  0.46068338  0.92757596     0.00730
C1060       C  0.99464327  0.45849802  0.92121392    -0.11450
C1061       C  0.53793702  0.00115468  0.92355389     0.03220
C1062       C  0.53716630  0.04387455  0.41705476    -0.10870
H1063       H  0.92052047  0.50307035  0.42314306     0.08810
H1064       H  0.99248019  0.42473757  0.92764044     0.06340
H1065       H  0.57075858  0.07631811  0.41702142     0.06190
C1066       C  0.67197113  0.38761908  0.51183066     0.03230
C1067       C  0.62971667  0.34611950  0.51968330    -0.12920
C1068       C  0.62974590  0.30291642  0.51598300     0.00730
C1069       C  0.67109147  0.30238307  0.52582574    -0.11450
C1070       C  0.71367480  0.34335907  0.51718229     0.03220
C1071       C  0.71330342  0.38650404  0.52253957    -0.10870
H1072       H  0.59641145  0.34556415  0.51684483     0.08810
H1073       H  0.66956330  0.26803393  0.52650124     0.06340
H1074       H  0.74624956  0.41923688  0.52477331     0.06190
C1075       C  0.84806975  0.16384942  0.09173677     0.03230
C1076       C  0.80449845  0.12174522  0.08921248    -0.12920
C1077       C  0.76365207  0.12392101  0.09609493     0.00730
C1078       C  0.76389123  0.16631228  0.08903337    -0.11450
C1079       C  0.80558428  0.20757199  0.09896922     0.03220
C1080       C  0.84804519  0.20752916  0.09112569    -0.10870
H1081       H  0.80274228  0.08781127  0.09463215     0.08810
H1082       H  0.73067183  0.16621680  0.08978032     0.06340
H1083       H  0.88158468  0.24001625  0.09362656     0.06190
C1084       C  0.78667698  0.32197579  0.07706310     0.03230
C1085       C  0.82956849  0.36424905  0.07338334    -0.12920
C1086       C  0.86774188  0.36340381  0.05768096     0.00730
C1087       C  0.86794201  0.32076726  0.05399506    -0.11450
C1088       C  0.82509069  0.28031174  0.04579755     0.03220
C1089       C  0.78297250  0.27957280  0.05960300    -0.10870
H1090       H  0.83190343  0.39855881  0.07864882     0.08810
H1091       H  0.90047816  0.32261209  0.04502811     0.06340
H1092       H  0.74894392  0.24757415  0.05678161     0.06190
C1093       C  0.88013819  0.36896433  0.36702912     0.03230
C1094       C  0.83559117  0.36649436  0.36798123    -0.12920
C1095       C  0.79679355  0.32735381  0.38385587     0.00730
C1096       C  0.79941457  0.28558367  0.38850982    -0.11450
C1097       C  0.84274111  0.28856435  0.39565791     0.03220
C1098       C  0.88414560  0.33028200  0.38320145    -0.10870
H1099       H  0.83247509  0.39744752  0.36066013     0.08810
H1100       H  0.76852262  0.25283600  0.39584246     0.06340
H1101       H  0.91855178  0.33326109  0.38698252     0.06190
C1102       C  0.87064109  0.37832326  0.24681971     0.03230
C1103       C  0.86102639  0.33102061  0.25224762    -0.12920
C1104       C  0.81829999  0.29342836  0.23927758     0.00730
C1105       C  0.78002361  0.30161953  0.23924004    -0.11450
C1106       C  0.78835854  0.34458530  0.22414559     0.03220
C1107       C  0.83428275  0.38508602  0.23003425    -0.10870
H1108       H  0.88931340  0.32377258  0.25937099     0.08810
H1109       H  0.74461163  0.27150733  0.23650008     0.06340
H1110       H  0.84186622  0.42009811  0.22087491     0.06190
C1111       C  0.68339472  0.46191653  0.07387747     0.03230
C1112       C  0.64038149  0.45940497  0.06434369    -0.12920
C1113       C  0.63948715  0.99641145  0.04549351     0.00730
C1114       C  0.68128605  0.03783873  0.03808268    -0.11450
C1115       C  0.72444684  0.03957736  0.03939485     0.03220
C1116       C  0.72627756  0.00123272  0.05891833    -0.10870
H1117       H  0.60717941  0.42769316  0.07014756     0.08810
H1118       H  0.67920067  0.06703729  0.02547165     0.06340
H1119       H  0.75968264  0.00193186  0.06245946     0.06190
C1120       C  0.51502384  0.11971041  0.22998098     0.03230
C1121       C  0.55695172  0.16556704  0.22510211    -0.12920
C1122       C  0.55573438  0.19992759  0.20072132     0.00730
C1123       C  0.51480968  0.18551593  0.18028795    -0.11450
C1124       C  0.47425816  0.14246154  0.18582197     0.03220
C1125       C  0.47380887  0.10956968  0.21033189    -0.10870
H1126       H  0.58900163  0.17446490  0.24040355     0.08810
H1127       H  0.51331543  0.20876160  0.15945696     0.06340
H1128       H  0.94125034  0.07630253  0.21414802     0.06190
C1129       C  0.62014654  0.48443674  0.24853024     0.03230
C1130       C  0.66263530  0.52743950  0.24757733    -0.12920
C1131       C  0.70062451  0.52939351  0.23017863     0.00730
C1132       C  0.70421584  0.48861317  0.22629226    -0.11450
C1133       C  0.66260898  0.44530822  0.22148360     0.03220
C1134       C  0.61939613  0.44233006  0.23410877    -0.10870
H1135       H  0.66390554  0.06114261  0.25329652     0.08810
H1136       H  0.73698617  0.49296632  0.21544985     0.06340
H1137       H  0.58626400  0.40929788  0.23117308     0.06190
O1138       O  0.71404602  0.41415832  0.10179892    -0.81700
C1139       C  0.59493176  0.24866575  0.19017088     0.97650
O1140       O  0.58409223  0.27733874  0.17400499    -0.70820
O1141       O  0.63093673  0.36985771  0.19053705    -0.74410
Al1142     Al  0.61739932  0.33594966  0.14544394     1.48980
C1143       C  0.66571354  0.41068319  0.19552016     0.92910
O1144       O  0.74854440  0.37755034  0.19018510    -0.80630
O1145       O  0.70822697  0.29109820  0.10203940    -0.74190
Al1146     Al  0.72662948  0.39025281  0.14588974     1.90120
O1147       O  0.72889253  0.30335178  0.17725552    -0.73260
O1148       O  0.61332904  0.24595440  0.11516258    -0.73110
O1149       O  0.63699217  0.25753058  0.18982083    -0.78770
O1150       O  0.59277482  0.29961659  0.10096224    -0.76970
O1151       O  0.67202290  0.33511998  0.14514665    -1.13100
O1152       O  0.64181430  0.39570023  0.11602727    -0.72300
C1153       C  0.67978408  0.42183133  0.09823565     0.98420
C1154       C  0.75315900  0.34174723  0.19607794     0.94810
Al1155     Al  0.67200042  0.27943860  0.14572037     1.55560
O1156       O  0.70272786  0.42393813  0.17633712    -0.76920
C1157       C  0.58487631  0.25708161  0.09871655     0.98980
C1158       C  0.74929375  0.32611382  0.09889776     0.93860
O1159       O  0.76034994  0.36508949  0.11628868    -0.82240
C1160       C  0.54070768  0.21810923  0.07944677     0.03230
C1161       C  0.53941429  0.17404539  0.07600433    -0.12920
C1162       C  0.50209789  0.13569657  0.05812706     0.00730
C1163       C  0.96148067  0.13782034  0.04903153    -0.11450
C1164       C  0.96187190  0.18084665  0.04584402     0.03130
C1165       C  0.00160304  0.22218270  0.06309170    -0.10870
H1166       H  0.56999513  0.17064048  0.08337910     0.08810
H1167       H  0.93150782  0.10634623  0.03758011     0.06340
H1168       H  0.00329237  0.25661624  0.06224223     0.06190
C1169       C  0.63600113  0.01252137  0.36764631     0.03230
C1170       C  0.67196803  0.05428985  0.38660712    -0.12920
C1171       C  0.71832584  0.05970437  0.39227806     0.00730
C1172       C  0.72726268  0.02634825  0.37525786    -0.11450
C1173       C  0.68968041  0.97982391  0.37283939     0.03220
C1174       C  0.64683332  0.97591044  0.36007935    -0.10870
H1175       H  0.66395395  0.08098909  0.39707723     0.08810
H1176       H  0.76309251  0.03277732  0.37518441     0.06340
H1177       H  0.62003241  0.44223597  0.34845793     0.06190
C1178       C  0.98829323  0.11958869  0.36776452     0.03230
C1179       C  0.03017016  0.16283997  0.37348679    -0.12920
C1180       C  0.02876437  0.20269086  0.38683099     0.00730
C1181       C  0.98652049  0.20335815  0.38657770    -0.11450
C1182       C  0.94567978  0.16029841  0.39263336     0.03220
C1183       C  0.94530875  0.11723636  0.38049456    -0.10870
H1184       H  0.56407941  0.16427909  0.37161126     0.08810
H1185       H  0.98785919  0.23639284  0.39509868     0.06340
H1186       H  0.91340204  0.08301336  0.38233629     0.06190
O1187       O  0.91683536  0.21346954  0.01512697    -0.81700
C1188       C  0.75507356  0.09277761  0.41973530     0.97650
O1189       O  0.78095527  0.07958204  0.43756961    -0.70820
O1190       O  0.87268579  0.12721143  0.42501445    -0.74410
Al1191     Al  0.83864279  0.11349369  0.46934007     1.48980
C1192       C  0.91212759  0.16302920  0.41969685     0.92910
O1193       O  0.87710801  0.24642602  0.42631340    -0.80630
O1194       O  0.79399599  0.20355603  0.01479319    -0.74190
Al1195     Al  0.89140967  0.22459639  0.47060424     1.90120
O1196       O  0.80448208  0.22592985  0.44047373    -0.73260
O1197       O  0.75078366  0.10888636  0.99967433    -0.73110
O1198       O  0.75973526  0.13321325  0.42588107    -0.78770
O1199       O  0.80301432  0.08704318  0.01307456    -0.76970
O1200       O  0.83734358  0.16859679  0.47050050    -1.13100
O1201       O  0.89704141  0.13964263  0.00088567    -0.72300
C1202       C  0.92298169  0.17815844  0.01977485     0.98420
C1203       C  0.84147796  0.25132689  0.42162044     0.94810
Al1204     Al  0.78211121  0.16785022  0.47040210     1.55560
O1205       O  0.92496683  0.20087393  0.43925189    -0.76920
C1206       C  0.76191803  0.08067897  0.01666908     0.98980
C1207       C  0.82822879  0.24504703  0.01949705     0.93860
O1208       O  0.86618198  0.25772872  0.50142019    -0.82240
O1209       O  0.58046266  0.03994269  0.35184654    -0.81700
C1210       C  0.91728873  0.41772230  0.26038932     0.97650
O1211       O  0.94468938  0.40699704  0.27798623    -0.70820
O1212       O  0.53875860  0.45294844  0.26576490    -0.74410
Al1213     Al  0.00117740  0.44155228  0.30823744     1.48980
C1214       C  0.57991654  0.48817140  0.26450239     0.92910
O1215       O  0.54602176  0.07706635  0.26341082    -0.80630
O1216       O  0.95737655  0.03862905  0.34491260    -0.74190
Al1217     Al  0.55671163  0.05313021  0.30778354     1.90120
O1218       O  0.97167826  0.05537747  0.27149302    -0.73260
O1219       O  0.91151917  0.44207370  0.33287837    -0.73110
O1220       O  0.92659198  0.46060236  0.25945282    -0.78770
O1221       O  0.96213818  0.41915128  0.35038442    -0.76970
O1222       O  0.00164616  0.99805536  0.30666150    -1.13100
O1223       O  0.55895163  0.46545134  0.33885714    -0.72300
C1224       C  0.58872172  0.00543524  0.35352997     0.98420
C1225       C  0.01099823  0.08233212  0.25635803     0.94810
Al1226     Al  0.94692742  0.49908590  0.30271412     1.55560
O1227       O  0.58924463  0.02751945  0.28000889    -0.76920
C1228       C  0.92044602  0.41280436  0.35013881     0.98980
C1229       C  0.49273666  0.07974892  0.34917976     0.93860
O1230       O  0.53237787  0.08856572  0.33582279    -0.82240
C1231       C  0.84714729  0.27678912  0.14258493    -0.21210
C1232       C  0.80513673  0.23599557  0.13147390    -0.09250
C1233       C  0.76821716  0.21551092  0.15722214     0.29610
C1234       C  0.77705963  0.22874256  0.19377241    -0.21210
C1235       C  0.81926864  0.26874370  0.20513582    -0.09260
C1236       C  0.85455201  0.29284264  0.17872660     0.29610
F1237       F  0.89615784  0.33256292  0.18709491    -0.19790
H1238       H  0.87570749  0.29547798  0.12379886     0.17980
H1239       H  0.74881344  0.20982808  0.21293487     0.17980
F1240       F  0.72388047  0.18048464  0.14862751    -0.19780
C1241       C  0.89046185  0.11967147  0.10943698    -0.21210
C1242       C  0.88470896  0.16013198  0.11375181    -0.09250
C1243       C  0.90368384  0.18868213  0.14571831     0.29610
C1244       C  0.92302633  0.17443028  0.17323967    -0.21210
C1245       C  0.93237482  0.13708517  0.16722411    -0.09260
C1246       C  0.91559017  0.10910828  0.13543634     0.29610
F1247       F  0.42581774  0.07368398  0.12870812    -0.19790
H1248       H  0.87572042  0.09645958  0.08568556     0.17980
H1249       H  0.93702435  0.19696184  0.19752004     0.17980
F1250       F  0.90095798  0.22868543  0.15248252    -0.19780
C1251       C  0.69833746  0.06439573  0.13330567    -0.21210
C1252       C  0.74369136  0.10292950  0.13137593    -0.09250
C1253       C  0.77187289  0.12072962  0.16370809     0.29610
C1254       C  0.75661306  0.09807634  0.19649777    -0.21210
C1255       C  0.71308393  0.05768170  0.19766804    -0.09260
C1256       C  0.68291661  0.04130064  0.16634513     0.29610
F1257       F  0.63965401  0.50181117  0.16715352    -0.19790
H1258       H  0.67557897  0.05144250  0.10938557     0.17980
H1259       H  0.77938784  0.11104108  0.22062422     0.17980
F1260       F  0.81444159  0.16024270  0.16408907    -0.19780
C1261       C  0.78600856  0.37898821  0.42984850    -0.21210
C1262       C  0.76673898  0.33517618  0.41065045    -0.09250
C1263       C  0.72896095  0.29537140  0.42672069     0.29610
C1264       C  0.71922671  0.29633948  0.46349203    -0.21210
C1265       C  0.73878685  0.33987646  0.48368553    -0.09260
C1266       C  0.77346122  0.38127072  0.46595784     0.29610
F1267       F  0.79926705  0.42324896  0.48423347    -0.19790
H1268       H  0.81486471  0.41107498  0.41875163     0.17980
H1269       H  0.69191781  0.26300658  0.47397758     0.17980
F1270       F  0.70174139  0.25469759  0.40707614    -0.19780
C1271       C  0.71864098  0.44900873  0.46472759    -0.21210
C1272       C  0.67412516  0.41445386  0.47732165    -0.09250
C1273       C  0.63578129  0.39721606  0.45153617     0.29610
C1274       C  0.64275703  0.41321008  0.41567400    -0.21210
C1275       C  0.68710690  0.44828034  0.40377686    -0.09260
C1276       C  0.72584422  0.46169050  0.42812758     0.29610
F1277       F  0.77111015  0.98722992  0.41740450    -0.19790
H1278       H  0.74947609  0.46474457  0.48238804     0.17980
H1279       H  0.61217086  0.39870847  0.39759023     0.17980
F1280       F  0.59140558  0.36230965  0.45896039    -0.19780
C1281       C  0.56412216  0.23331607  0.48487262    -0.21210
C1282       C  0.60608374  0.27574421  0.48227983    -0.09250
C1283       C  0.62451678  0.29270181  0.44701378     0.29610
C1284       C  0.60066001  0.26768818  0.41560888    -0.21210
C1285       C  0.55794112  0.22610125  0.41888774    -0.09260
C1286       C  0.53957599  0.20889566  0.45373498     0.29610
F1287       F  0.49728135  0.16876731  0.45774685    -0.19790
H1288       H  0.55020624  0.21906269  0.51075376     0.17980
H1289       H  0.61461723  0.28162011  0.38888227     0.17980
F1290       F  0.66508584  0.33385438  0.44218879    -0.19780
C1291       C  0.93214286  0.43137903  0.02783887    -0.21210
C1292       C  0.88707170  0.39281561  0.02593375    -0.09250
C1293       C  0.86434863  0.37524652  0.49168501     0.29610
C1294       C  0.88604812  0.39786180  0.45994375    -0.21210
C1295       C  0.93059869  0.43700948  0.96143685    -0.09260
C1296       C  0.95420377  0.45259998  0.99572928     0.29610
F1297       F  0.99837072  0.48906425  0.99864537    -0.19790
H1298       H  0.95093527  0.44352119  0.05383754     0.17980
H1299       H  0.86884198  0.38367279  0.43429300     0.17980
F1300       F  0.82293836  0.33382586  0.48862514    -0.19780
C1301       C  0.54765234  0.12783408  0.00883556    -0.21210
C1302       C  0.51130976  0.10455547  0.03413446    -0.09250
C1303       C  0.97234235  0.06103878  0.02400207     0.29610
C1304       C  0.96306814  0.04945311  0.98719361    -0.21210
C1305       C  0.49867116  0.07211818  0.96079889    -0.09260
C1306       C  0.54100368  0.11275590  0.97233160     0.29610
F1307       F  0.57529281  0.13952528  0.94831973    -0.19790
H1308       H  0.57888682  0.16123324  0.01604335     0.17980
H1309       H  0.92889143  0.01935554  0.98075299     0.17980
F1310       F  0.93820424  0.03561739  0.04863244    -0.19780
C1311       C  0.58766045  0.03794185  0.97911523    -0.21210
C1312       C  0.57203211  0.00218535  0.95168149    -0.09250
C1313       C  0.57412980  0.46039954  0.45940771     0.29610
C1314       C  0.58692692  0.45328982  0.49444008    -0.21210
C1315       C  0.59964297  0.98839622  0.02185196    -0.09260
C1316       C  0.59417832  0.02807941  0.01484520     0.29610
F1317       F  0.60402270  0.06160513  0.04138331    -0.19790
H1318       H  0.58974454  0.07174910  0.97460288     0.17980
H1319       H  0.59048407  0.42225186  0.49972913     0.17980
F1320       F  0.56301159  0.42631276  0.43327795    -0.19780
C1321       C  0.49601298  0.04528492  0.92631682     0.03230
C1322       C  0.95342549  0.50284306  0.91963107    -0.12920
C1323       C  0.95385443  0.46068285  0.42757563     0.00730
C1324       C  0.99464520  0.45849784  0.42121467    -0.11450
C1325       C  0.53793740  0.00115411  0.42355222     0.03220
C1326       C  0.53716933  0.04387701  0.91705681    -0.10870
H1327       H  0.92051959  0.50307164  0.92314517     0.08810
H1328       H  0.99248252  0.42473785  0.42764234     0.06340
H1329       H  0.57076263  0.07631947  0.91702481     0.06190
C1330       C  0.67196972  0.38762069  0.01182963     0.03230
C1331       C  0.62971540  0.34612101  0.01968240    -0.12920
C1332       C  0.62974528  0.30291811  0.01598332     0.00730
C1333       C  0.67109107  0.30238562  0.02582686    -0.11450
C1334       C  0.71367423  0.34336174  0.01718326     0.03220
C1335       C  0.71330215  0.38650649  0.02253949    -0.10870
H1336       H  0.59640998  0.34556506  0.01684317     0.08810
H1337       H  0.66956342  0.26803673  0.02650305     0.06340
H1338       H  0.74624806  0.41923958  0.02477316     0.06190
C1339       C  0.84807034  0.16384863  0.59173740     0.03230
C1340       C  0.80449884  0.12174459  0.58921379    -0.12920
C1341       C  0.76365279  0.12392097  0.59609629     0.00730
C1342       C  0.76389229  0.16631223  0.58903395    -0.11450
C1343       C  0.80558547  0.20757191  0.59896960     0.03220
C1344       C  0.84804623  0.20752862  0.59112631    -0.10870
H1345       H  0.80274254  0.08781066  0.59463385     0.08810
H1346       H  0.73067301  0.16621702  0.58978047     0.06340
H1347       H  0.88158589  0.24001552  0.59362725     0.06190
C1348       C  0.78667739  0.32197615  0.57706292     0.03230
C1349       C  0.82956869  0.36424954  0.57338283    -0.12920
C1350       C  0.86774219  0.36340435  0.55768062     0.00730
C1351       C  0.86794265  0.32076789  0.55399518    -0.11450
C1352       C  0.82509142  0.28031206  0.54579807     0.03220
C1353       C  0.78297318  0.27957302  0.55960338    -0.10870
H1354       H  0.83190333  0.39855925  0.57864790     0.08810
H1355       H  0.90047881  0.32261280  0.54502819     0.06340
H1356       H  0.74894470  0.24757419  0.55678224     0.06190
C1357       C  0.88013779  0.36896486  0.86702931     0.03230
C1358       C  0.83559114  0.36649566  0.86798234    -0.12920
C1359       C  0.79679356  0.32735535  0.88385730     0.00730
C1360       C  0.79941412  0.28558489  0.88851086    -0.11450
C1361       C  0.84274056  0.28856479  0.89565785     0.03220
C1362       C  0.88414499  0.33028216  0.88320109    -0.10870
H1363       H  0.83247546  0.39744916  0.86066161     0.08810
H1364       H  0.76852214  0.25283744  0.89584380     0.06340
H1365       H  0.91855104  0.33326068  0.88698139     0.06190
C1366       C  0.87064149  0.37832374  0.74681936     0.03230
C1367       C  0.86102658  0.33102110  0.75224765    -0.12920
C1368       C  0.81830028  0.29342885  0.73927755     0.00730
C1369       C  0.78002396  0.30162015  0.73923967    -0.11450
C1370       C  0.78835904  0.34458586  0.72414500     0.03220
C1371       C  0.83428330  0.38508654  0.73003363    -0.10870
H1372       H  0.88931344  0.32377297  0.75937137     0.08810
H1373       H  0.74461194  0.27150800  0.73649975     0.06340
H1374       H  0.84186691  0.42009859  0.72087410     0.06190
C1375       C  0.68339441  0.46191683  0.57387769     0.03230
C1376       C  0.64038159  0.45940682  0.56434498    -0.12920
C1377       C  0.63948860  0.99641358  0.54549388     0.00730
C1378       C  0.68128788  0.03784247  0.53808746    -0.11450
C1379       C  0.72444765  0.03957883  0.53939674     0.03220
C1380       C  0.72627783  0.00123293  0.55891859    -0.10870
H1381       H  0.60717925  0.42769485  0.57014795     0.08810
H1382       H  0.67920362  0.06704359  0.52547996     0.06340
H1383       H  0.75968261  0.00193124  0.56245889     0.06190
C1384       C  0.51502597  0.11970999  0.72998075     0.03230
C1385       C  0.55695342  0.16556696  0.72510202    -0.12920
C1386       C  0.55573583  0.19992676  0.70072055     0.00730
C1387       C  0.51481167  0.18551398  0.68028623    -0.11450
C1388       C  0.47426033  0.14245954  0.68582045     0.03220
C1389       C  0.47381110  0.10956841  0.71033109    -0.10870
H1390       H  0.58900310  0.17446568  0.74040411     0.08810
H1391       H  0.51331739  0.20875915  0.65945481     0.06340
H1392       H  0.94125155  0.07630057  0.71414732     0.06190
C1393       C  0.62014714  0.48443586  0.74853164     0.03230
C1394       C  0.66263690  0.52743795  0.74758098    -0.12920
C1395       C  0.70062585  0.52939213  0.73018172     0.00730
C1396       C  0.70421618  0.48861136  0.72629396    -0.11450
C1397       C  0.66260881  0.44530713  0.72148393     0.03220
C1398       C  0.61939604  0.44232943  0.73410882    -0.10870
H1399       H  0.66390837  0.06114268  0.75329940     0.08810
H1400       H  0.73698643  0.49296430  0.71545159     0.06340
H1401       H  0.58626349  0.40929797  0.73117171     0.06190
O1402       O  0.71404552  0.41415801  0.60179834    -0.81700
C1403       C  0.59493256  0.24866539  0.69017051     0.97650
O1404       O  0.58409242  0.27733795  0.67400461    -0.70820
O1405       O  0.63093640  0.36985713  0.69053653    -0.74410
Al1406     Al  0.61739912  0.33594897  0.64544346     1.48980
C1407       C  0.66571316  0.41068263  0.69551978     0.92910
O1408       O  0.74854453  0.37755061  0.69018455    -0.80630
O1409       O  0.70822727  0.29109837  0.60203889    -0.74190
Al1410     Al  0.72662931  0.39025281  0.64588918     1.90120
O1411       O  0.72889319  0.30335223  0.67725487    -0.73260
O1412       O  0.61332928  0.24595382  0.61516217    -0.73110
O1413       O  0.63699315  0.25753089  0.68982048    -0.78770
O1414       O  0.59277468  0.29961572  0.60096179    -0.76970
O1415       O  0.67202294  0.33511978  0.64514613    -1.13100
O1416       O  0.64181371  0.39569956  0.61602673    -0.72300
C1417       C  0.67978350  0.42183091  0.59823517     0.98420
C1418       C  0.75315947  0.34174768  0.69607732     0.94810
Al1419     Al  0.67200090  0.27943863  0.64571989     1.55560
O1420       O  0.70272743  0.42393789  0.67633662    -0.76920
C1421       C  0.58487641  0.25708081  0.59871607     0.98980
C1422       C  0.74929401  0.32611410  0.59889734     0.93860
O1423       O  0.76035001  0.36508978  0.61628817    -0.82240
C1424       C  0.54070802  0.21810836  0.57944595     0.03230
C1425       C  0.53941535  0.17404494  0.57600256    -0.12920
C1426       C  0.50209896  0.13569607  0.55812522     0.00730
C1427       C  0.96148149  0.13781898  0.54902933    -0.11450
C1428       C  0.96187154  0.18084488  0.54584341     0.03130
C1429       C  0.00160204  0.22218073  0.56309196    -0.10870
H1430       H  0.56999651  0.17064041  0.58337693     0.08810
H1431       H  0.93150936  0.10634493  0.53757700     0.06340
H1432       H  0.00329035  0.25661385  0.56224370     0.06190
C1433       C  0.63599784  0.01251685  0.86765388     0.03230
C1434       C  0.67196922  0.05429023  0.88660688    -0.12920
C1435       C  0.71832498  0.05970058  0.89228051     0.00730
C1436       C  0.72725537  0.02633489  0.87526928    -0.11450
C1437       C  0.68966985  0.97981175  0.87286168     0.03220
C1438       C  0.64682261  0.97589756  0.86010070    -0.10870
H1439       H  0.66396015  0.08099654  0.89706895     0.08810
H1440       H  0.76308380  0.03276001  0.87519505     0.06340
H1441       H  0.62003286  0.44223672  0.84845544     0.06190
C1442       C  0.98829325  0.11958816  0.86776435     0.03230
C1443       C  0.03017034  0.16283918  0.87348692    -0.12920
C1444       C  0.02876484  0.20269022  0.88683110     0.00730
C1445       C  0.98652123  0.20335801  0.88657761    -0.11450
C1446       C  0.94568028  0.16029849  0.89263317     0.03220
C1447       C  0.94530887  0.11723622  0.88049427    -0.10870
H1448       H  0.56408016  0.16427802  0.87161251     0.08810
H1449       H  0.98786024  0.23639285  0.89509858     0.06340
H1450       H  0.91340197  0.08301337  0.88233590     0.06190
O1451       O  0.91683454  0.21346805  0.51512756    -0.81700
C1452       C  0.75507477  0.09277700  0.91973522     0.97650
O1453       O  0.78095683  0.07958256  0.93757021    -0.70820
O1454       O  0.87268683  0.12721163  0.92501486    -0.74410
Al1455     Al  0.83864385  0.11349442  0.96934041     1.48980
C1456       C  0.91212824  0.16302961  0.91969669     0.92910
O1457       O  0.87710777  0.24642622  0.92631264    -0.80630
O1458       O  0.79399655  0.20355624  0.51479410    -0.74190
Al1459     Al  0.89140984  0.22459704  0.97060360     1.90120
O1460       O  0.80448181  0.22592956  0.94047304    -0.73260
O1461       O  0.75078348  0.10888678  0.49967540    -0.73110
O1462       O  0.75973635  0.13321288  0.92587976    -0.78770
O1463       O  0.80301372  0.08704251  0.51307429    -0.76970
O1464       O  0.83734410  0.16859722  0.97050016    -1.13100
O1465       O  0.89704051  0.13964134  0.50088530    -0.72300
C1466       C  0.92298089  0.17815686  0.51977483     0.98420
C1467       C  0.84147761  0.25132693  0.92161984     0.94810
Al1468     Al  0.78211136  0.16785000  0.97040116     1.55560
O1469       O  0.92496724  0.20087472  0.93925122    -0.76920
C1470       C  0.76191801  0.08067935  0.51666989     0.98980
C1471       C  0.82822943  0.24504716  0.51949780     0.93860
O1472       O  0.86618152  0.25772886  0.00141954    -0.82240
O1473       O  0.58046375  0.03994190  0.85184779    -0.81700
C1474       C  0.91728914  0.41772269  0.76038900     0.97650
O1475       O  0.94468962  0.40699728  0.77798601    -0.70820
O1476       O  0.53875867  0.45294824  0.76576467    -0.74410
Al1477     Al  0.00117734  0.44155217  0.80823754     1.48980
C1478       C  0.57991680  0.48817099  0.76450269     0.92910
O1479       O  0.54602406  0.07706680  0.76341178    -0.80630
O1480       O  0.95737642  0.03862849  0.84491207    -0.74190
Al1481     Al  0.55671313  0.05312994  0.80778459     1.90120
O1482       O  0.97167922  0.05537667  0.77149285    -0.73260
O1483       O  0.91151896  0.44207377  0.83287800    -0.73110
O1484       O  0.92659250  0.46060278  0.75945252    -0.78770
O1485       O  0.96213769  0.41915107  0.85038425    -0.76970
O1486       O  0.00164683  0.99805471  0.80666180    -1.13100
O1487       O  0.55895123  0.46545102  0.83885697    -0.72300
C1488       C  0.58872135  0.00543349  0.85353240     0.98420
C1489       C  0.01099937  0.08233149  0.75635824     0.94810
Al1490     Al  0.94692767  0.49908604  0.80271395     1.55560
O1491       O  0.58924658  0.02751948  0.78001036    -0.76920
C1492       C  0.92044564  0.41280445  0.85013862     0.98980
C1493       C  0.49273743  0.07974846  0.84917991     0.93860
O1494       O  0.53237894  0.08856513  0.83582364    -0.82240
C1495       C  0.84714875  0.27678893  0.64258540    -0.21210
C1496       C  0.80513799  0.23599576  0.63147412    -0.09250
C1497       C  0.76821802  0.21551157  0.65722207     0.29610
C1498       C  0.77706013  0.22874313  0.69377235    -0.21210
C1499       C  0.81926921  0.26874398  0.70513599    -0.09260
C1500       C  0.85455312  0.29284250  0.67872706     0.29610
F1501       F  0.89615914  0.33256241  0.68709563    -0.19790
H1502       H  0.87570925  0.29547751  0.62379949     0.17980
H1503       H  0.74881360  0.20982888  0.71293458     0.17980
F1504       F  0.72388118  0.18048584  0.64862717    -0.19780
C1505       C  0.89046292  0.11967069  0.60943598    -0.21210
C1506       C  0.88470982  0.16013093  0.61375176    -0.09250
C1507       C  0.90368455  0.18868025  0.64571861     0.29610
C1508       C  0.92302698  0.17442770  0.67323955    -0.21210
C1509       C  0.93237570  0.13708287  0.66722314    -0.09260
C1510       C  0.91559133  0.10910694  0.63543488     0.29610
F1511       F  0.42581990  0.07368325  0.62870579    -0.19790
H1512       H  0.87572148  0.09645943  0.58568422     0.17980
H1513       H  0.93702491  0.19695864  0.69752023     0.17980
F1514       F  0.90095873  0.22868348  0.65248344    -0.19780
C1515       C  0.69833817  0.06439676  0.63330766    -0.21210
C1516       C  0.74369219  0.10293024  0.63137754    -0.09250
C1517       C  0.77187409  0.12073041  0.66370951     0.29610
C1518       C  0.75661469  0.09807703  0.69649925    -0.21210
C1519       C  0.71308559  0.05768233  0.69766974    -0.09260
C1520       C  0.68291775  0.04130162  0.66634711     0.29610
F1521       F  0.63965301  0.50181237  0.66715775    -0.19790
H1522       H  0.67557916  0.05144358  0.60938787     0.17980
H1523       H  0.77938983  0.11104164  0.72062551     0.17980
F1524       F  0.81444283  0.16024343  0.66409017    -0.19780
C1525       C  0.78600873  0.37899011  0.92984987    -0.21210
C1526       C  0.76673919  0.33517792  0.91065202    -0.09250
C1527       C  0.72896123  0.29537324  0.92672247     0.29610
C1528       C  0.71922694  0.29634164  0.96349375    -0.21210
C1529       C  0.73878677  0.33987881  0.98368693    -0.09260
C1530       C  0.77346127  0.38127290  0.96595915     0.29610
F1531       F  0.79926702  0.42325124  0.98423470    -0.19790
H1532       H  0.81486488  0.41107678  0.91875289     0.17980
H1533       H  0.69191805  0.26300882  0.97397944     0.17980
F1534       F  0.70174145  0.25469934  0.90707808    -0.19780
C1535       C  0.71863994  0.44900934  0.96472605    -0.21210
C1536       C  0.67412398  0.41445483  0.97732018    -0.09250
C1537       C  0.63578026  0.39721671  0.95153450     0.29610
C1538       C  0.64275617  0.41321067  0.91567231    -0.21210
C1539       C  0.68710629  0.44828048  0.90377514    -0.09260
C1540       C  0.72584344  0.46169038  0.92812593     0.29610
F1541       F  0.77110252  0.98723893  0.91743648    -0.19790
H1542       H  0.74947501  0.46474542  0.98238653     0.17980
H1543       H  0.61217005  0.39870925  0.89758849     0.17980
F1544       F  0.59140467  0.36230985  0.95895845    -0.19780
C1545       C  0.56412266  0.23331622  0.98487335    -0.21210
C1546       C  0.60608372  0.27574488  0.98228039    -0.09250
C1547       C  0.62451677  0.29270220  0.94701429     0.29610
C1548       C  0.60066048  0.26768789  0.91560950    -0.21210
C1549       C  0.55794196  0.22610063  0.91888849    -0.09260
C1550       C  0.53957677  0.20889528  0.95373576     0.29610
F1551       F  0.49728214  0.16876692  0.95774766    -0.19790
H1552       H  0.55020671  0.21906298  0.01075465     0.17980
H1553       H  0.61461766  0.28161967  0.88888285     0.17980
F1554       F  0.66508543  0.33385512  0.94218915    -0.19780
C1555       C  0.93214285  0.43137996  0.52783861    -0.21210
C1556       C  0.88707205  0.39281597  0.52593333    -0.09250
C1557       C  0.86434788  0.37524659  0.99168551     0.29610
C1558       C  0.88604725  0.39786185  0.95994423    -0.21210
C1559       C  0.93059952  0.43700958  0.46143650    -0.09260
C1560       C  0.95420402  0.45260080  0.49572908     0.29610
F1561       F  0.99837079  0.48906545  0.49864533    -0.19790
H1562       H  0.95093488  0.44352259  0.55383739     0.17980
H1563       H  0.86884097  0.38367301  0.93429353     0.17980
F1564       F  0.82293726  0.33382629  0.98862568    -0.19780
C1565       C  0.54765112  0.12783292  0.50883267    -0.21210
C1566       C  0.51131055  0.10455448  0.53413307    -0.09250
C1567       C  0.97234369  0.06103589  0.52400284     0.29610
C1568       C  0.96306743  0.04944662  0.48719502    -0.21210
C1569       C  0.49866823  0.07211379  0.46079826    -0.09260
C1570       C  0.54100027  0.11275350  0.47232900     0.29610
F1571       F  0.57528717  0.13952309  0.44831564    -0.19790
H1572       H  0.57888538  0.16123289  0.51603918     0.17980
H1573       H  0.92889121  0.01934720  0.48075630     0.17980
F1574       F  0.93820749  0.03561586  0.54863490    -0.19780
C1575       C  0.58766267  0.03794420  0.47911188    -0.21210
C1576       C  0.57203640  0.00218874  0.45167762    -0.09250
C1577       C  0.57412657  0.46039794  0.95940706     0.29610
C1578       C  0.58692242  0.45328621  0.99443934    -0.21210
C1579       C  0.59964880  0.98839938  0.52184741    -0.09260
C1580       C  0.59418206  0.02808155  0.51484136     0.29610
F1581       F  0.60402170  0.06160475  0.54138063    -0.19790
H1582       H  0.58974317  0.07174996  0.47460038     0.17980
H1583       H  0.59047858  0.42224756  0.99972778     0.17980
F1584       F  0.56300842  0.42631215  0.93327643    -0.19780
C1585       C  0.49596148  0.54523716  0.42633745     0.03230
C1586       C  0.95347259  0.00288334  0.41959728    -0.12920
C1587       C  0.95388735  0.96072813  0.92755245     0.00730
C1588       C  0.99468034  0.95853544  0.92121832    -0.11450
C1589       C  0.53789734  0.50112344  0.92352247     0.03220
C1590       C  0.53711257  0.54383809  0.41704292    -0.10870
H1591       H  0.92056609  0.00311712  0.42309099     0.08810
H1592       H  0.99249941  0.92476920  0.92764936     0.06340
H1593       H  0.57070267  0.57628339  0.41699762     0.06190
C1594       C  0.67194210  0.88740917  0.51200065     0.03230
C1595       C  0.62969538  0.84588716  0.51982536    -0.12920
C1596       C  0.62971829  0.80269257  0.51601527     0.00730
C1597       C  0.67107209  0.80213146  0.52577778    -0.11450
C1598       C  0.71364395  0.84312441  0.51714318     0.03220
C1599       C  0.71328839  0.88625971  0.52261085    -0.10870
H1600       H  0.59638991  0.84534456  0.51704769     0.08810
H1601       H  0.66953946  0.76777828  0.52638061     0.06340
H1602       H  0.74624021  0.91898412  0.52485812     0.06190
C1603       C  0.84815478  0.66394459  0.09170805     0.03230
C1604       C  0.80458166  0.62184576  0.08914554    -0.12920
C1605       C  0.76373077  0.62401489  0.09602449     0.00730
C1606       C  0.76398091  0.66641930  0.08900025    -0.11450
C1607       C  0.80567271  0.70766544  0.09896304     0.03220
C1608       C  0.84813627  0.70762754  0.09112267    -0.10870
H1609       H  0.80281539  0.58790232  0.09454074     0.08810
H1610       H  0.73076297  0.66632684  0.08974995     0.06340
H1611       H  0.88167596  0.74011075  0.09364600     0.06190
C1612       C  0.78667861  0.82198812  0.07704283     0.03230
C1613       C  0.82955774  0.86426974  0.07334799    -0.12920
C1614       C  0.86773285  0.86343561  0.05763885     0.00730
C1615       C  0.86795018  0.82080786  0.05395287    -0.11450
C1616       C  0.82510455  0.78034069  0.04576740     0.03220
C1617       C  0.78298364  0.77958840  0.05958327    -0.10870
H1618       H  0.83188045  0.89857471  0.07861027     0.08810
H1619       H  0.90048879  0.82266440  0.04497877     0.06340
H1620       H  0.74896023  0.74758159  0.05677182     0.06190
C1621       C  0.88014676  0.86896710  0.36701017     0.03230
C1622       C  0.83558965  0.86647583  0.36793231    -0.12920
C1623       C  0.79678524  0.82732194  0.38378621     0.00730
C1624       C  0.79942438  0.78556492  0.38846471    -0.11450
C1625       C  0.84275469  0.78856682  0.39563745     0.03220
C1626       C  0.88415931  0.83029442  0.38319457    -0.10870
H1627       H  0.83246371  0.89742051  0.36060122     0.08810
H1628       H  0.76853446  0.75281262  0.39579571     0.06340
H1629       H  0.91856927  0.83328861  0.38699571     0.06190
C1630       C  0.87065743  0.87833543  0.24682582     0.03230
C1631       C  0.86104085  0.83103497  0.25226988    -0.12920
C1632       C  0.81832380  0.79343985  0.23929084     0.00730
C1633       C  0.78004299  0.80162470  0.23924054    -0.11450
C1634       C  0.78837608  0.84458718  0.22413984     0.03220
C1635       C  0.83429973  0.88509157  0.23002933    -0.10870
H1636       H  0.88932542  0.82378891  0.25940686     0.08810
H1637       H  0.74463372  0.77150827  0.23649815     0.06340
H1638       H  0.84188343  0.92010083  0.22086256     0.06190
C1639       C  0.68338028  0.96192099  0.07390051     0.03230
C1640       C  0.64037249  0.95944621  0.06440626    -0.12920
C1641       C  0.63948861  0.49634659  0.04540428     0.00730
C1642       C  0.68127758  0.53777883  0.03798623    -0.11450
C1643       C  0.72445851  0.53956825  0.03936200     0.03220
C1644       C  0.72629748  0.50124667  0.05891539    -0.10870
H1645       H  0.60716614  0.92774280  0.07021609     0.08810
H1646       H  0.67917345  0.56694407  0.02533289     0.06340
H1647       H  0.75971267  0.50197734  0.06249535     0.06190
C1648       C  0.51500706  0.61969683  0.22998105     0.03230
C1649       C  0.55694065  0.66554918  0.22510169    -0.12920
C1650       C  0.55573412  0.69990746  0.20071270     0.00730
C1651       C  0.51481650  0.68549441  0.18026957    -0.11450
C1652       C  0.47425786  0.64244811  0.18580867     0.03220
C1653       C  0.47379608  0.60956036  0.21032855    -0.10870
H1654       H  0.58898618  0.67444558  0.24040900     0.08810
H1655       H  0.51333044  0.70873713  0.15943196     0.06340
H1656       H  0.94123156  0.57629863  0.21414727     0.06190
C1657       C  0.62018690  0.98441971  0.24859063     0.03230
C1658       C  0.66270856  0.02739896  0.24770243    -0.12920
C1659       C  0.70068525  0.02934902  0.23028446     0.00730
C1660       C  0.70424521  0.98855346  0.22637064    -0.11450
C1661       C  0.66262116  0.94527178  0.22152274     0.03220
C1662       C  0.61941193  0.94231472  0.23413612    -0.10870
H1663       H  0.66379568  0.56117567  0.25312710     0.08810
H1664       H  0.73701263  0.99289550  0.21553132     0.06340
H1665       H  0.58626493  0.90930641  0.23115810     0.06190
O1666       O  0.71403519  0.91415502  0.10180292    -0.81700
C1667       C  0.59493315  0.74864758  0.19016752     0.97650
O1668       O  0.58409345  0.77732204  0.17400504    -0.70820
O1669       O  0.63093498  0.86984006  0.19054388    -0.74410
Al1670     Al  0.61739689  0.83593561  0.14544867     1.48980
C1671       C  0.66571467  0.91066230  0.19553484     0.92910
O1672       O  0.74855683  0.87754706  0.19017868    -0.80630
O1673       O  0.70823499  0.79109474  0.10203729    -0.74190
Al1674     Al  0.72662836  0.89024716  0.14588884     1.90120
O1675       O  0.72889953  0.80334599  0.17725480    -0.73260
O1676       O  0.61333606  0.74594734  0.11515634    -0.73110
O1677       O  0.63699423  0.75751393  0.18981722    -0.78770
O1678       O  0.59277121  0.79960453  0.10096547    -0.76970
O1679       O  0.67202391  0.83511085  0.14514739    -1.13100
O1680       O  0.64180410  0.89568866  0.11603788    -0.72300
C1681       C  0.67977122  0.92182566  0.09824589     0.98420
C1682       C  0.75317154  0.84174444  0.19607312     0.94810
Al1683     Al  0.67200609  0.77943107  0.14571783     1.55560
O1684       O  0.70272682  0.92392480  0.17634730    -0.76920
C1685       C  0.58488066  0.75707252  0.09871161     0.98980
C1686       C  0.74929678  0.82611625  0.09888884     0.93860
O1687       O  0.76034875  0.86509161  0.11627866    -0.82240
C1688       C  0.54071824  0.71810107  0.07943161     0.03230
C1689       C  0.53941362  0.67402935  0.07600957    -0.12920
C1690       C  0.50210394  0.63568041  0.05812586     0.00730
C1691       C  0.96150319  0.63781643  0.04898998    -0.11450
C1692       C  0.96189478  0.68084379  0.04580676     0.03130
C1693       C  0.00162388  0.72217814  0.06305950    -0.10870
H1694       H  0.56998239  0.67061499  0.08340857     0.08810
H1695       H  0.93153962  0.60634620  0.03752375     0.06340
H1696       H  0.00331589  0.75661307  0.06220680     0.06190
C1697       C  0.63602708  0.51255096  0.36757562     0.03230
C1698       C  0.67195415  0.55427837  0.38660431    -0.12920
C1699       C  0.71833364  0.55973617  0.39224689     0.00730
C1700       C  0.72732944  0.52646741  0.37514536    -0.11450
C1701       C  0.68977893  0.47993092  0.37263087     0.03220
C1702       C  0.64692944  0.47601859  0.35988344    -0.10870
H1703       H  0.66389345  0.58091246  0.39714721     0.08810
H1704       H  0.76317280  0.53293517  0.37507565     0.06340
H1705       H  0.61989849  0.94210178  0.34872073     0.06190
C1706       C  0.98827617  0.61958292  0.36774537     0.03230
C1707       C  0.03015130  0.66284201  0.37344591    -0.12920
C1708       C  0.02874621  0.70269526  0.38678509     0.00730
C1709       C  0.98650127  0.70335997  0.38653021    -0.11450
C1710       C  0.94566502  0.66030071  0.39259946     0.03220
C1711       C  0.94529424  0.61723394  0.38047518    -0.10870
H1712       H  0.56406268  0.66428477  0.37156856     0.08810
H1713       H  0.98783896  0.73639595  0.39504601     0.06340
H1714       H  0.91339098  0.58301026  0.38233096     0.06190
O1715       O  0.91684845  0.71346806  0.01510634    -0.81700
C1716       C  0.75506825  0.59278636  0.41972244     0.97650
O1717       O  0.78095132  0.57958433  0.43754796    -0.70820
O1718       O  0.87267952  0.62722272  0.42498520    -0.74410
Al1719     Al  0.83864905  0.61349897  0.46931442     1.48980
C1720       C  0.91212406  0.66303639  0.41966925     0.92910
O1721       O  0.87712107  0.74643571  0.42629983    -0.80630
O1722       O  0.79401834  0.70357572  0.01477955    -0.74190
Al1723     Al  0.89142297  0.72460377  0.47058688     1.90120
O1724       O  0.80449404  0.72594004  0.44045909    -0.73260
O1725       O  0.75080971  0.60890637  0.99967031    -0.73110
O1726       O  0.75973328  0.63322124  0.42587717    -0.78770
O1727       O  0.80302990  0.58704195  0.01305037    -0.76970
O1728       O  0.83735403  0.66860530  0.47048354    -1.13100
O1729       O  0.89705633  0.63964473  0.00085156    -0.72300
C1730       C  0.92299971  0.67815806  0.01974348     0.98420
C1731       C  0.84149095  0.75133576  0.42160594     0.94810
Al1732     Al  0.78212516  0.66786354  0.47039281     1.55560
O1733       O  0.92497399  0.70087831  0.43923033    -0.76920
C1734       C  0.76193776  0.58068557  0.01665249     0.98980
C1735       C  0.82824906  0.74506812  0.01947793     0.93860
O1736       O  0.86620223  0.75774370  0.50140417    -0.82240
O1737       O  0.58043984  0.53992916  0.35184069    -0.81700
C1738       C  0.91730889  0.91773715  0.26038916     0.97650
O1739       O  0.94471162  0.90701351  0.27798521    -0.70820
O1740       O  0.53878487  0.95296003  0.26577582    -0.74410
Al1741     Al  0.00119472  0.94156524  0.30824286     1.48980
C1742       C  0.57994792  0.98817626  0.26452473     0.92910
O1743       O  0.54599798  0.57704988  0.26340934    -0.80630
O1744       O  0.95736051  0.53861324  0.34491694    -0.74190
Al1745     Al  0.55669029  0.55311670  0.30777940     1.90120
O1746       O  0.97165476  0.55536356  0.27149375    -0.73260
O1747       O  0.91153391  0.94208820  0.33287395    -0.73110
O1748       O  0.92661356  0.96061745  0.25945028    -0.78770
O1749       O  0.96215014  0.91916586  0.35038577    -0.76970
O1750       O  0.00162578  0.49804120  0.30665890    -1.13100
O1751       O  0.55895680  0.96545757  0.33887234    -0.72300
C1752       C  0.58871790  0.50543417  0.35350800     0.98420
C1753       C  0.01097491  0.58231699  0.25635782     0.94810
Al1754     Al  0.94694758  0.99910117  0.30271185     1.55560
O1755       O  0.58921797  0.52750886  0.27999842    -0.76920
C1756       C  0.92045771  0.91281642  0.35013371     0.98980
C1757       C  0.49272038  0.57973543  0.34917729     0.93860
O1758       O  0.53235970  0.58855111  0.33581850    -0.82240
C1759       C  0.84721385  0.77686027  0.14259789    -0.21210
C1760       C  0.80521018  0.73606836  0.13147474    -0.09250
C1761       C  0.76828477  0.71556073  0.15721631     0.29610
C1762       C  0.77711530  0.72877082  0.19377061    -0.21210
C1763       C  0.81931574  0.76877228  0.20514656    -0.09260
C1764       C  0.85460783  0.79288968  0.17874599     0.29610
F1765       F  0.89621133  0.83260481  0.18712922    -0.19790
H1766       H  0.87577436  0.79556628  0.12381410     0.17980
H1767       H  0.74886418  0.70984242  0.21292659     0.17980
F1768       F  0.72395339  0.68053252  0.14860984    -0.19780
C1769       C  0.89051057  0.61972948  0.10940767    -0.21210
C1770       C  0.88477068  0.66019654  0.11373341    -0.09250
C1771       C  0.90373026  0.68872016  0.14571474     0.29610
C1772       C  0.92304084  0.67443430  0.17323743    -0.21210
C1773       C  0.93237917  0.63708432  0.16721128    -0.09260
C1774       C  0.91561034  0.60913397  0.13541015     0.29610
F1775       F  0.42582994  0.57370584  0.12867337    -0.19790
H1776       H  0.87578156  0.59653687  0.08564510     0.17980
H1777       H  0.93702937  0.69694674  0.19752820     0.17980
F1778       F  0.90101458  0.72872653  0.15249271    -0.19780
C1779       C  0.69837956  0.56446257  0.13319762    -0.21210
C1780       C  0.74374496  0.60298495  0.13128994    -0.09250
C1781       C  0.77190355  0.62076148  0.16363504     0.29610
C1782       C  0.75660498  0.59810783  0.19641830    -0.21210
C1783       C  0.71306145  0.55773271  0.19756937    -0.09260
C1784       C  0.68292248  0.54136202  0.16623211     0.29610
F1785       F  0.63965391  0.00174564  0.16728006    -0.19790
H1786       H  0.67563910  0.55152674  0.10926658     0.17980
H1787       H  0.77935954  0.61105796  0.22055640     0.17980
F1788       F  0.81448045  0.66026282  0.16403900    -0.19780
C1789       C  0.78592984  0.87890927  0.42977023    -0.21210
C1790       C  0.76668189  0.83512028  0.41054444    -0.09250
C1791       C  0.72888528  0.79529850  0.42657758     0.29610
C1792       C  0.71914853  0.79620900  0.46335508    -0.21210
C1793       C  0.73871691  0.83971390  0.48359375    -0.09260
C1794       C  0.77336738  0.88114379  0.46588328     0.29610
F1795       F  0.79914660  0.92311284  0.48417532    -0.19790
H1796       H  0.81478403  0.91101323  0.41869180     0.17980
H1797       H  0.69184219  0.76285754  0.47381607     0.17980
F1798       F  0.70169168  0.75464739  0.40690007    -0.19780
C1799       C  0.71855082  0.94897124  0.46499633    -0.21210
C1800       C  0.67405404  0.91434226  0.47756113    -0.09250
C1801       C  0.63570755  0.89713069  0.45178164     0.29610
C1802       C  0.64268163  0.91315041  0.41592660    -0.21210
C1803       C  0.68702300  0.94824630  0.40403733    -0.09260
C1804       C  0.72575654  0.96170898  0.42840743     0.29610
F1805       F  0.77119236  0.48715313  0.41709798    -0.19790
H1806       H  0.74937639  0.96470794  0.48266914     0.17980
H1807       H  0.61210182  0.89862561  0.39783669     0.17980
F1808       F  0.59133340  0.86221589  0.45920099    -0.19780
C1809       C  0.56407139  0.73317569  0.48484674    -0.21210
C1810       C  0.60602899  0.77561233  0.48228697    -0.09250
C1811       C  0.62445318  0.79264848  0.44703198     0.29610
C1812       C  0.60060365  0.76768791  0.41560855    -0.21210
C1813       C  0.55790045  0.72607700  0.41885770    -0.09260
C1814       C  0.53953186  0.70880660  0.45369269     0.29610
F1815       F  0.49724817  0.66865705  0.45767649    -0.19790
H1816       H  0.55015466  0.71886210  0.51072597     0.17980
H1817       H  0.61456037  0.78167169  0.38889195     0.17980
F1818       F  0.66501484  0.83381841  0.44223701    -0.19780
C1819       C  0.93212537  0.93142575  0.02781079    -0.21210
C1820       C  0.88706004  0.89285602  0.02589619    -0.09250
C1821       C  0.86434758  0.87528926  0.49164971     0.29610
C1822       C  0.88605004  0.89791653  0.45991145    -0.21210
C1823       C  0.93060651  0.93706204  0.96140826    -0.09260
C1824       C  0.95419788  0.95264983  0.99570664     0.29610
F1825       F  0.99836484  0.98911308  0.99863486    -0.19790
H1826       H  0.95090880  0.94356541  0.05381320     0.17980
H1827       H  0.86884490  0.88373769  0.43425710     0.17980
F1828       F  0.82295015  0.83385567  0.48858421    -0.19780
C1829       C  0.54766173  0.62776246  0.00887217    -0.21210
C1830       C  0.51131859  0.60450654  0.03417300    -0.09250
C1831       C  0.97234537  0.56098823  0.02405048     0.29610
C1832       C  0.96305741  0.54939602  0.98724269    -0.21210
C1833       C  0.49864861  0.57206260  0.96083750    -0.09260
C1834       C  0.54099146  0.61269257  0.97236586     0.29610
F1835       F  0.57527154  0.63946494  0.94834843    -0.19790
H1836       H  0.57890828  0.66115262  0.01607786     0.17980
H1837       H  0.92887614  0.51930134  0.98080882     0.17980
F1838       F  0.93820557  0.53559019  0.04868557    -0.19780
C1839       C  0.58764491  0.53789028  0.97906950    -0.21210
C1840       C  0.57202416  0.50215813  0.95161919    -0.09250
C1841       C  0.57411584  0.96042346  0.45949767     0.29610
C1842       C  0.58690571  0.95333568  0.49453841    -0.21210
C1843       C  0.59963710  0.48831862  0.02177032    -0.09260
C1844       C  0.59415020  0.52799440  0.01479237     0.29610
F1845       F  0.60398813  0.56149707  0.04134859    -0.19790
H1846       H  0.58972877  0.57169958  0.97457446     0.17980
H1847       H  0.59043294  0.92228489  0.49984985     0.17980
F1848       F  0.56298690  0.92630894  0.43339037    -0.19780
C1849       C  0.49596395  0.54524202  0.92633969     0.03230
C1850       C  0.95347630  0.00289202  0.91959545    -0.12920
C1851       C  0.95388766  0.96072171  0.42755556     0.00730
C1852       C  0.99468172  0.95853168  0.42122021    -0.11450
C1853       C  0.53789673  0.50112044  0.42352242     0.03220
C1854       C  0.53711463  0.54384225  0.91704467    -0.10870
H1855       H  0.92057069  0.00312801  0.92308772     0.08810
H1856       H  0.99250424  0.92476730  0.42765283     0.06340
H1857       H  0.57070518  0.57628702  0.91700002     0.06190
C1858       C  0.67194271  0.88738624  0.01201845     0.03230
C1859       C  0.62969696  0.84586234  0.01984123    -0.12920
C1860       C  0.62971878  0.80266845  0.01601987     0.00730
C1861       C  0.67107358  0.80210434  0.02577321    -0.11450
C1862       C  0.71364412  0.84309859  0.01713849     0.03220
C1863       C  0.71329074  0.88623320  0.02261743    -0.10870
H1864       H  0.59639157  0.84532136  0.01707019     0.08810
H1865       H  0.66954005  0.76775058  0.02636891     0.06340
H1866       H  0.74624333  0.91895665  0.02486541     0.06190
C1867       C  0.84815351  0.66394260  0.59170887     0.03230
C1868       C  0.80458039  0.62184367  0.58914754    -0.12920
C1869       C  0.76372971  0.62401298  0.59602707     0.00730
C1870       C  0.76397959  0.66641716  0.58900233    -0.11450
C1871       C  0.80567148  0.70766339  0.59896468     0.03220
C1872       C  0.84813485  0.70762548  0.59112350    -0.10870
H1873       H  0.80281441  0.58790041  0.59454305     0.08810
H1874       H  0.73076167  0.66632472  0.58975235     0.06340
H1875       H  0.88167456  0.74010877  0.59364613     0.06190
C1876       C  0.78667963  0.82198797  0.57704454     0.03230
C1877       C  0.82956035  0.86426877  0.57335245    -0.12920
C1878       C  0.86773562  0.86343398  0.55764418     0.00730
C1879       C  0.86795104  0.82080527  0.55395735    -0.11450
C1880       C  0.82510490  0.78033965  0.54576976     0.03220
C1881       C  0.78298404  0.77958838  0.55958443    -0.10870
H1882       H  0.83188441  0.89857414  0.57861573     0.08810
H1883       H  0.90048945  0.82266068  0.54498403     0.06340
H1884       H  0.74896011  0.74758254  0.55677130     0.06190
C1885       C  0.88014644  0.86896410  0.86700719     0.03230
C1886       C  0.83558747  0.86646902  0.86792474    -0.12920
C1887       C  0.79678250  0.82731324  0.88377626     0.00730
C1888       C  0.79942461  0.78555815  0.88845698    -0.11450
C1889       C  0.84275565  0.78856404  0.89563451     0.03220
C1890       C  0.88416022  0.83029337  0.88319387    -0.10870
H1891       H  0.83245967  0.89741211  0.86059184     0.08810
H1892       H  0.76853507  0.75280449  0.89578652     0.06340
H1893       H  0.91857091  0.83329040  0.88699857     0.06190
C1894       C  0.87065799  0.87833517  0.74682582     0.03230
C1895       C  0.86104053  0.83103463  0.75227100    -0.12920
C1896       C  0.81832338  0.79343960  0.73929206     0.00730
C1897       C  0.78004295  0.80162507  0.73924067    -0.11450
C1898       C  0.78837676  0.84458753  0.72413944     0.03220
C1899       C  0.83430073  0.88509158  0.73002873    -0.10870
H1900       H  0.88932464  0.82378817  0.75940870     0.08810
H1901       H  0.74463355  0.77150887  0.73649819     0.06340
H1902       H  0.84188499  0.92010079  0.72086140     0.06190
C1903       C  0.68338028  0.96192121  0.57390039     0.03230
C1904       C  0.64037280  0.95944663  0.56440512    -0.12920
C1905       C  0.63948952  0.49635011  0.54540727     0.00730
C1906       C  0.68127900  0.53778297  0.53799162    -0.11450
C1907       C  0.72445879  0.53956958  0.53936379     0.03220
C1908       C  0.72629716  0.50124642  0.55891521    -0.10870
H1909       H  0.60716626  0.92774223  0.57021268     0.08810
H1910       H  0.67917598  0.56695058  0.52534145     0.06340
H1911       H  0.75971184  0.50197553  0.56249335     0.06190
C1912       C  0.51500760  0.61969629  0.72998010     0.03230
C1913       C  0.55694097  0.66554900  0.72510129    -0.12920
C1914       C  0.55573477  0.69990686  0.70071163     0.00730
C1915       C  0.51481802  0.68549292  0.68026713    -0.11450
C1916       C  0.47425942  0.64244647  0.68580593     0.03220
C1917       C  0.47379714  0.60955922  0.71032658    -0.10870
H1918       H  0.58898600  0.67444602  0.74040957     0.08810
H1919       H  0.51333232  0.70873544  0.65942917     0.06340
H1920       H  0.94123301  0.57629837  0.71414633     0.06190
C1921       C  0.62018901  0.98441999  0.74859203     0.03230
C1922       C  0.66271099  0.02739901  0.74770451    -0.12920
C1923       C  0.70068738  0.02934917  0.73028595     0.00730
C1924       C  0.70424681  0.98855339  0.72637121    -0.11450
C1925       C  0.66262245  0.94527196  0.72152310     0.03220
C1926       C  0.61941352  0.94231512  0.73413681    -0.10870
H1927       H  0.66379836  0.56117428  0.75313238     0.08810
H1928       H  0.73701401  0.99289532  0.71553150     0.06340
H1929       H  0.58626631  0.90930710  0.73115842     0.06190
O1930       O  0.71403485  0.91415478  0.60180250    -0.81700
C1931       C  0.59493347  0.74864760  0.69016730     0.97650
O1932       O  0.58409351  0.77732200  0.67400499    -0.70820
O1933       O  0.63093546  0.86984036  0.69054391    -0.74410
Al1934     Al  0.61739700  0.83593585  0.64544864     1.48980
C1935       C  0.66571531  0.91066257  0.69553479     0.92910
O1936       O  0.74855733  0.87754754  0.69017841    -0.80630
O1937       O  0.70823512  0.79109520  0.60203697    -0.74190
Al1938     Al  0.72662849  0.89024743  0.64588854     1.90120
O1939       O  0.72889993  0.80334642  0.67725451    -0.73260
O1940       O  0.61333613  0.74594768  0.61515618    -0.73110
O1941       O  0.63699470  0.75751444  0.68981710    -0.78770
O1942       O  0.59277134  0.79960497  0.60096535    -0.76970
O1943       O  0.67202407  0.83511114  0.64514725    -1.13100
O1944       O  0.64180398  0.89568891  0.61603778    -0.72300
C1945       C  0.67977092  0.92182554  0.59824551     0.98420
C1946       C  0.75317214  0.84174492  0.69607276     0.94810
Al1947     Al  0.67200631  0.77943144  0.64571762     1.55560
O1948       O  0.70272715  0.92392512  0.67634691    -0.76920
C1949       C  0.58488078  0.75707296  0.59871146     0.98980
C1950       C  0.74929709  0.82611657  0.59888901     0.93860
O1951       O  0.76034884  0.86509194  0.61627864    -0.82240
C1952       C  0.54071858  0.71810166  0.57943120     0.03230
C1953       C  0.53941642  0.67403149  0.57600568    -0.12920
C1954       C  0.50210659  0.63568260  0.55812216     0.00730
C1955       C  0.96150405  0.63781783  0.54898962    -0.11450
C1956       C  0.96189463  0.68084476  0.54580760     0.03130
C1957       C  0.00162321  0.72217887  0.56306110    -0.10870
H1958       H  0.56998664  0.67061852  0.58340229     0.08810
H1959       H  0.93154053  0.60634748  0.53752350     0.06340
H1960       H  0.00331426  0.75661339  0.56220978     0.06190
C1961       C  0.63602682  0.51255083  0.86757499     0.03230
C1962       C  0.67195376  0.55427785  0.88660419    -0.12920
C1963       C  0.71833341  0.55973579  0.89224632     0.00730
C1964       C  0.72732937  0.52646758  0.87514401    -0.11450
C1965       C  0.68977892  0.47993108  0.87262900     0.03220
C1966       C  0.64692962  0.47601907  0.85988156    -0.10870
H1967       H  0.66389287  0.58091148  0.89714779     0.08810
H1968       H  0.76317275  0.53293538  0.87507416     0.06340
H1969       H  0.61988364  0.94208585  0.84874974     0.06190
C1970       C  0.98827555  0.61958281  0.86774421     0.03230
C1971       C  0.03015027  0.66284262  0.87344332    -0.12920
C1972       C  0.02874472  0.70269556  0.88678259     0.00730
C1973       C  0.98649952  0.70335967  0.88652765    -0.11450
C1974       C  0.94566387  0.66030018  0.89259784     0.03220
C1975       C  0.94529359  0.61723341  0.88047427    -0.10870
H1976       H  0.56406172  0.66428545  0.87156563     0.08810
H1977       H  0.98783686  0.73639554  0.89504328     0.06340
H1978       H  0.91339082  0.58300947  0.88233103     0.06190
O1979       O  0.91684851  0.71346911  0.51510682    -0.81700
C1980       C  0.75506814  0.59278575  0.91972189     0.97650
O1981       O  0.78095110  0.57958359  0.93754737    -0.70820
O1982       O  0.87267905  0.62722223  0.92498424    -0.74410
Al1983     Al  0.83864911  0.61349833  0.96931359     1.48980
C1984       C  0.91212367  0.66303577  0.91966832     0.92910
O1985       O  0.87712197  0.74643499  0.92629942    -0.80630
O1986       O  0.79401814  0.70357551  0.51478066    -0.74190
Al1987     Al  0.89142336  0.72460307  0.97058639     1.90120
O1988       O  0.80449462  0.72593953  0.94045771    -0.73260
O1989       O  0.75080896  0.60890625  0.49967079    -0.73110
O1990       O  0.75973351  0.63322075  0.92587654    -0.78770
O1991       O  0.80302960  0.58704256  0.51305110    -0.76970
O1992       O  0.83735429  0.66860480  0.97048289    -1.13100
O1993       O  0.89705590  0.63964551  0.50085265    -0.72300
C1994       C  0.92299940  0.67815896  0.51974440     0.98420
C1995       C  0.84149182  0.75133470  0.92160468     0.94810
Al1996     Al  0.78212558  0.66786333  0.97039198     1.55560
O1997       O  0.92497424  0.70087743  0.93922988    -0.76920
C1998       C  0.76193741  0.58068601  0.51665330     0.98980
C1999       C  0.82824891  0.74506790  0.51947923     0.93860
O2000       O  0.86620264  0.75774335  0.00140335    -0.82240
O2001       O  0.58043898  0.53992865  0.85184085    -0.81700
C2002       C  0.91730990  0.91773674  0.76038872     0.97650
O2003       O  0.94471267  0.90701301  0.77798464    -0.70820
O2004       O  0.53878687  0.95296036  0.76577644    -0.74410
Al2005     Al  0.00119537  0.94156459  0.80824292     1.48980
C2006       C  0.57995000  0.98817650  0.76452594     0.92910
O2007       O  0.54599814  0.57704945  0.76340900    -0.80630
O2008       O  0.95736057  0.53861287  0.84491695    -0.74190
Al2009     Al  0.55669006  0.55311631  0.80777923     1.90120
O2010       O  0.97165550  0.55536398  0.77149370    -0.73260
O2011       O  0.91153413  0.94208718  0.83287334    -0.73110
O2012       O  0.92661483  0.96061709  0.75944984    -0.78770
O2013       O  0.96215022  0.91916475  0.85038532    -0.76970
O2014       O  0.00162592  0.49804114  0.80665896    -1.13100
O2015       O  0.55895694  0.96545652  0.83887352    -0.72300
C2016       C  0.58871734  0.50543383  0.85350795     0.98420
C2017       C  0.01097579  0.58231727  0.75635785     0.94810
Al2018     Al  0.94694821  0.99910049  0.80271154     1.55560
O2019       O  0.58921809  0.52750847  0.77999863    -0.76920
C2020       C  0.92045770  0.91281495  0.85013270     0.98980
C2021       C  0.49271980  0.57973507  0.84917642     0.93860
O2022       O  0.53235921  0.58855070  0.83581787    -0.82240
C2023       C  0.84721357  0.77685766  0.64259997    -0.21210
C2024       C  0.80520963  0.73606601  0.63147687    -0.09250
C2025       C  0.76828438  0.71555857  0.65721863     0.29610
C2026       C  0.77711496  0.72876926  0.69377284    -0.21210
C2027       C  0.81931543  0.76877088  0.70514850    -0.09260
C2028       C  0.85460767  0.79288749  0.67874792     0.29610
F2029       F  0.89621141  0.83260246  0.68713095    -0.19790
H2030       H  0.87577426  0.79556329  0.62381631     0.17980
H2031       H  0.74886380  0.70984143  0.71292889     0.17980
F2032       F  0.72395290  0.68053042  0.64861238    -0.19780
C2033       C  0.89051050  0.61972822  0.60940708    -0.21210
C2034       C  0.88477042  0.66019512  0.61373321    -0.09250
C2035       C  0.90373101  0.68871915  0.64571421     0.29610
C2036       C  0.92304269  0.67443379  0.67323637    -0.21210
C2037       C  0.93238093  0.63708381  0.66720990    -0.09260
C2038       C  0.91561133  0.60913319  0.63540894     0.29610
F2039       F  0.42583097  0.57370488  0.62867012    -0.19790
H2040       H  0.87578082  0.59653541  0.58564468     0.17980
H2041       H  0.93703181  0.69694643  0.69752699     0.17980
F2042       F  0.90101522  0.72872538  0.65249247    -0.19780
C2043       C  0.69837876  0.56446248  0.63320133    -0.21210
C2044       C  0.74374470  0.60298370  0.63129288    -0.09250
C2045       C  0.77190432  0.62075984  0.66363752     0.29610
C2046       C  0.75660632  0.59810628  0.69642094    -0.21210
C2047       C  0.71306221  0.55773189  0.69757265    -0.09260
C2048       C  0.68292215  0.54136219  0.66623592     0.29610
F2049       F  0.63965498  0.00174674  0.66728221    -0.19790
H2050       H  0.67563734  0.55152726  0.60927080     0.17980
H2051       H  0.77936171  0.61105587  0.72055862     0.17980
F2052       F  0.81448157  0.66026077  0.66404086    -0.19780
C2053       C  0.78591972  0.87889634  0.92975887    -0.21210
C2054       C  0.76667472  0.83510869  0.91053177    -0.09250
C2055       C  0.72887826  0.79528518  0.92656311     0.29610
C2056       C  0.71914284  0.79619167  0.96334142    -0.21210
C2057       C  0.73871189  0.83969439  0.98358326    -0.09260
C2058       C  0.77335779  0.88112743  0.96587265     0.29610
F2059       F  0.79913431  0.92309689  0.98416463    -0.19790
H2060       H  0.81477198  0.91100215  0.91868087     0.17980
H2061       H  0.69183816  0.76283852  0.97380131     0.17980
F2062       F  0.70168711  0.75463494  0.90688391    -0.19780
C2063       C  0.71854327  0.94896703  0.96502456    -0.21210
C2064       C  0.67404904  0.91432931  0.97758637    -0.09250
C2065       C  0.63570192  0.89711972  0.95180776     0.29610
C2066       C  0.64267489  0.91314305  0.91595377    -0.21210
C2067       C  0.68701494  0.94824231  0.90406511    -0.09260
C2068       C  0.72574854  0.96171109  0.92843689     0.29610
F2069       F  0.77119163  0.48715243  0.91709632    -0.19790
H2070       H  0.74936798  0.96470423  0.98269853     0.17980
H2071       H  0.61209551  0.89861536  0.89786347     0.17980
F2072       F  0.59132872  0.86220207  0.95922628    -0.19780
C2073       C  0.56406724  0.73316170  0.98484595    -0.21210
C2074       C  0.60602584  0.77559765  0.98228928    -0.09250
C2075       C  0.62444926  0.79264094  0.94703528     0.29610
C2076       C  0.60059972  0.76768597  0.91561017    -0.21210
C2077       C  0.55789696  0.72607407  0.91885655    -0.09260
C2078       C  0.53952751  0.70879823  0.95369043     0.29610
F2079       F  0.49724407  0.66864771  0.95767165    -0.19790
H2080       H  0.55014981  0.71884268  0.01072552     0.17980
H2081       H  0.61455663  0.78167434  0.88889448     0.17980
F2082       F  0.66501033  0.83381237  0.94224299    -0.19780
C2083       C  0.93213000  0.93142201  0.52781475    -0.21210
C2084       C  0.88706324  0.89285411  0.52590134    -0.09250
C2085       C  0.86434612  0.87529085  0.99164401     0.29610
C2086       C  0.88604806  0.89792115  0.95990630    -0.21210
C2087       C  0.93060912  0.93705611  0.46141212    -0.09260
C2088       C  0.95420184  0.95264481  0.49570991     0.29610
F2089       F  0.99836892  0.98910827  0.49863677    -0.19790
H2090       H  0.95091446  0.94356171  0.55381675     0.17980
H2091       H  0.86884370  0.88374319  0.93425138     0.17980
F2092       F  0.82295173  0.83385422  0.98857750    -0.19780
C2093       C  0.54766081  0.62776680  0.50886461    -0.21210
C2094       C  0.51132078  0.60451001  0.53416772    -0.09250
C2095       C  0.97234764  0.56099148  0.52404703     0.29610
C2096       C  0.96305870  0.54939778  0.48723961    -0.21210
C2097       C  0.49864669  0.57206045  0.46083370    -0.09260
C2098       C  0.54098878  0.61269339  0.47235912     0.29610
F2099       F  0.57526636  0.63946469  0.44833965    -0.19790
H2100       H  0.57890608  0.66115910  0.51606812     0.17980
H2101       H  0.92887779  0.51930204  0.48080664     0.17980
F2102       F  0.93820931  0.53559300  0.54868304    -0.19780
C2103       C  0.58764505  0.53789145  0.47906845    -0.21210
C2104       C  0.57202502  0.50215820  0.45161902    -0.09250
C2105       C  0.57410616  0.96041743  0.95950348     0.29610
C2106       C  0.58689420  0.95332957  0.99454480    -0.21210
C2107       C  0.59964044  0.48832277  0.52177052    -0.09260
C2108       C  0.59415302  0.52799803  0.51479136     0.29610
F2109       F  0.60398899  0.56150088  0.54134702    -0.19790
H2110       H  0.58972581  0.57169934  0.47457296     0.17980
H2111       H  0.59041697  0.92227658  0.99985788     0.17980
F2112       F  0.56297575  0.92630108  0.93339745    -0.19780
loop_ 
_geom_bond_atom_site_label_1 
_geom_bond_atom_site_label_2 
_geom_bond_distance 
_geom_bond_site_symmetry_2 
_ccdc_geom_bond_type 
C1            C6   1.407   1_655  A
C1         C1586   1.402       .  A
C1          C513   1.501       .  S
C2         C1585   1.402       .  A
C2          C267   1.394       .  A
C2            H7   1.083       .  S
C3            C4   1.385       .  A
C3          C266   1.394       .  A
C3          C239   1.465       .  S
C4         C1589   1.401       .  A
C4            H8   1.079       .  S
C5         C1588   1.401   1_445  A
C5          C270   1.407       .  A
C5          C256   1.490       .  S
C6          C269   1.407       .  A
C6            H9   1.077       .  S
C10          C11   1.400       .  A
C10          C15   1.413       .  A
C10         C216   1.513       .  S
C11          C12   1.395       .  A
C11          H16   1.078       .  S
C12          C13   1.396       .  A
C12         C226   1.475       .  S
C13          C14   1.405       .  A
C13          H17   1.081       .  S
C14          C15   1.406       .  A
C14         C209   1.514       .  S
C15          H18   1.072       .  S
C19          C20   1.399       .  A
C19          C24   1.405       .  A
C19         C186   1.482       .  S
C20          C21   1.391       .  A
C20          H25   1.083       .  S
C21          C22   1.384       .  A
C21         C196   1.461       .  S
C22          C23   1.394       .  A
C22          H26   1.080       .  S
C23          C24   1.415       .  A
C23         C176   1.500       .  S
C24          H27   1.079       .  S
C28          C29   1.397       .  A
C28          C33   1.452       .  A
C28         C102   1.522       .  S
C29          C30   1.387       .  A
C29          H34   1.084       .  S
C30          C31   1.380       .  A
C30         C236   1.441       .  S
C31          C32   1.388       .  A
C31          H35   1.086       .  S
C32          C33   1.455       .  A
C32         C151   1.525       .  S
C33          H36   1.082       .  S
C37          C38   1.413       .  A
C37          C42   1.441       .  A
C37         C172   1.515       .  S
C38          C39   1.405       .  A
C38          H43   1.083       .  S
C39          C40   1.398       .  A
C39         C206   1.497       .  S
C40          C41   1.386       .  A
C40          H44   1.076       .  S
C41          C42   1.436       .  A
C41         C147   1.515       .  S
C42          H45   1.082       .  S
C46          C47   1.409       .  A
C46          C51   1.434       .  A
C46         C154   1.496       .  S
C47          C48   1.394       .  A
C47          H52   1.083       .  S
C48          C49   1.394       .  A
C48         C179   1.485       .  S
C49          C50   1.388       .  A
C49          H53   1.083       .  S
C50          C51   1.432       .  A
C50          C98   1.495       .  S
C51          H54   1.082       .  S
C55          C56   1.401       .  A
C55         C588   1.461       .  A
C55          C97   1.526       .  S
C56         C585   1.389       .  A
C56          H61   1.084       .  S
C57          C58   1.388   1_565  A
C57         C584   1.389       .  A
C57         C259   1.460       .  S
C58          C59   1.378       .  A
C58          H62   1.078       .  S
C59          C60   1.452       .  A
C59         C150   1.540       .  S
C60         C583   1.461   1_545  A
C60          H63   1.082       .  S
C64          C65   1.448       .  A
C64          C69   1.401   1_455  A
C64        C1225   1.499       .  S
C65          C66   1.437       .  A
C65          H70   1.082       .  S
C66          C67   1.382       .  A
C66          C83   1.510       .  S
C67          C68   1.382   1_455  A
C67          H71   1.086       .  S
C68          C69   1.383       .  A
C68        C1245   1.446       .  S
C69        H1128   1.084       .  S
H72        C1125   1.084       .  S
C73          C74   1.394       .  A
C73          C78   1.440       .  A
C73         C158   1.497       .  S
C74          C75   1.371       .  A
C74         H607   1.085       .  S
C75          C76   1.379       .  A
C75         C727   1.439       .  S
C76          C77   1.393       .  A
C76          H80   1.085       .  S
C77          C78   1.443       .  A
C77          C87   1.501       .  S
C78          H81   1.082       .  S
H79         C602   1.085       .  S
O82          C97   1.260       .  A
O82         Al90   1.911       .  S
C83          O93   1.253       .  A
C83          O84   1.281       .  A
O84         Al86   1.962       .  S
O85          C87   1.252       .  A
O85         Al86   1.895       .  S
Al86         O94   1.918       .  S
Al86         O96   2.003       .  S
Al86         O95   1.790       .  S
C87         O100   1.281       .  A
O88          C98   1.251       .  A
O88         Al90   1.885       .  S
O89         C102   1.261       .  A
O89         Al99   1.922       .  S
Al90        O103   1.981       .  S
Al90        O100   1.964       .  S
Al90         O95   1.788       .  S
O91          C98   1.281       .  A
O91         Al99   1.970       .  S
O92         C101   1.288       .  A
O92         Al99   1.990       .  S
O93         Al99   1.912       .  S
O94         C101   1.263       .  A
O95         Al99   1.790       .  S
O96          C97   1.287       .  A
C101        C104   1.525       .  S
C102        O103   1.284       .  A
C104        C105   1.402       .  A
C104       C1165   1.462       .  A
C105        C106   1.386       .  A
C105        H110   1.084       .  S
C106       C1163   1.392   1_455  A
C106        C246   1.468       .  S
C107        C108   1.382       .  A
C107       C1162   1.392       .  A
C107        H111   1.079       .  S
C108        C109   1.455       .  A
C108        C146   1.541       .  S
C109       C1160   1.462       .  A
C109        H112   1.082       .  S
C113        C114   1.442       .  A
C113        C118   1.412   1_545  A
C113        C168   1.522       .  S
C114        C115   1.442       .  A
C114        H119   1.082       .  S
C115        C116   1.388       .  A
C115        C132   1.509       .  S
C116        C117   1.392   1_545  A
C116        H120   1.079       .  S
C117        C118   1.409       .  A
C117        C747   1.504       .  S
C118        H649   1.082       .  S
H121        C646   1.082       .  S
C122        C123   1.400       .  A
C122        C127   1.446       .  A
C122       C1229   1.517       .  S
C123        C124   1.391       .  A
C123       H1184   1.084       .  S
C124        C125   1.385       .  A
C124       C1285   1.449       .  S
C125        C126   1.390       .  A
C125        H129   1.086       .  S
C126        C127   1.446       .  A
C126        C136   1.516       .  S
C127        H130   1.082       .  S
H128       C1179   1.084       .  S
O131        C146   1.258       .  A
O131       Al403   1.928   1_554  S
C132        O142   1.252       .  A
C132        O133   1.285       .  A
O133       Al135   1.994       .  S
O134        C136   1.251       .  A
O134       Al135   1.901       .  S
Al135       O407   1.925       .  S
Al135       O409   2.002       .  S
Al135       O144   1.793       .  S
C136        O149   1.285       .  A
O137        C147   1.254       .  A
O137       Al139   1.907       .  S
O138        C151   1.257       .  A
O138       Al412   1.905   1_554  S
Al139       O152   1.987       .  S
Al139       O149   1.982       .  S
Al139       O395   1.928       .  S
Al139       O144   1.794       .  S
O140        C147   1.284       .  A
O140       Al148   1.977       .  S
O141        C150   1.289   1_556  A
O141       Al412   1.979       .  S
O142       Al148   1.890       .  S
O143        C150   1.258       .  A
O143       Al399   1.925   1_554  S
O144       Al148   1.785       .  S
O145        C146   1.293       .  A
O145       Al399   2.002   1_554  S
Al148       O402   1.905       .  S
Al148       O405   1.979       .  S
C151        O416   1.286       .  A
O152        C415   1.286       .  A
O153        C168   1.265       .  A
O153       Al161   1.914       .  S
C154        O164   1.258       .  A
C154        O155   1.271       .  A
O155       Al157   1.939       .  S
O156        C158   1.260       .  A
O156      Al1213   1.910       .  S
Al157       O165   1.913       .  S
Al157      O1212   1.910       .  S
Al157      O1223   1.973       .  S
Al157       O694   1.810       .  S
C158        O699   1.275       .  A
O159       C1225   1.255       .  A
O159       Al161   1.897       .  S
O160       C1229   1.262       .  A
O160       Al698   1.911   1_545  S
Al161       O174   1.968       .  S
Al161       O171   1.925       .  S
Al161      O1222   1.795   1_545  S
O162        C169   1.274       .  A
O162       Al698   1.956   1_545  S
O163        C172   1.279       .  A
O163       Al170   1.967       .  S
O164       Al170   1.902       .  S
O165        C172   1.268       .  A
O166       Al685   1.810       .  S
O166      Al1217   1.795   1_565  S
O166       Al698   1.800       .  S
O167        C696   1.278       .  A
O167      Al1213   1.973       .  S
C168        O695   1.278   1_545  A
C169       C1120   1.499       .  S
C169       O1215   1.255       .  A
Al170       O688   1.911       .  S
Al170       O690   1.957       .  S
Al170       O694   1.800       .  S
O171        C686   1.275   1_545  A
C173       C1178   1.517       .  S
C173        O174   1.280   1_655  A
C173       O1216   1.262       .  A
C175        C176   1.404       .  A
C175        C180   1.390       .  A
C175        H182   1.080       .  S
C176        C177   1.420       .  A
C177        C178   1.383       .  A
C177        F184   1.354       .  S
C178        C179   1.398       .  A
C178        H183   1.084       .  S
C179        C180   1.417       .  A
C180        F181   1.357       .  S
C185        C186   1.411       .  A
C185        C190   1.393       .  A
C185        H192   1.082       .  S
C186        C187   1.415       .  A
C187        C188   1.374       .  A
C187        F194   1.354       .  S
C188        C189   1.393       .  A
C188        H193   1.086       .  S
C189        C190   1.396       .  A
C189       C1124   1.446       .  S
C190       F1247   1.357       .  S
F191       C1246   1.357       .  S
C195        C196   1.386       .  A
C195        C200   1.384       .  A
C195        H202   1.078       .  S
C196        C197   1.419       .  A
C197        C198   1.370       .  A
C197        F204   1.342       .  S
C198        C199   1.373       .  A
C198        H203   1.084       .  S
C199        C200   1.417       .  A
C199        C603   1.439       .  S
C200        F729   1.356       .  S
F201        C728   1.356       .  S
C205        C206   1.408       .  A
C205        C210   1.398       .  A
C205        H212   1.082       .  S
C206        C207   1.403       .  A
C207        C208   1.388       .  A
C207        F214   1.359       .  S
C208        C209   1.418       .  A
C208        H213   1.077       .  S
C209        C210   1.418       .  A
C210        F211   1.355       .  S
C215        C216   1.408       .  A
C215        C220   1.388       .  A
C215        H222   1.077       .  S
C216        C217   1.427       .  A
C217        C218   1.389       .  A
C217        F224   1.355       .  S
C218        C219   1.400       .  A
C218        H223   1.081       .  S
C219        C220   1.414       .  A
C219        C645   1.504       .  S
C220        F749   1.356       .  S
F221        C748   1.356       .  S
C225        C226   1.380       .  A
C225        C230   1.379       .  A
C225        H232   1.058       .  S
C226        C227   1.421       .  A
C227        C228   1.386       .  A
C227        F234   1.346       .  S
C228        C229   1.382       .  A
C228        H233   1.084       .  S
C229        C230   1.408       .  A
C229       C1180   1.449       .  S
C230        F231   1.356   1_455  S
C235        C236   1.378       .  A
C235        C240   1.379   1_554  A
C235        H242   1.084       .  S
C236        C501   1.411   1_554  A
C237        C238   1.376       .  A
C237        C500   1.411       .  A
C237        F244   1.353       .  S
C238        C503   1.375       .  A
C238        H243   1.064       .  S
C239        C240   1.415       .  A
C239        C502   1.375       .  A
C240        F241   1.337       .  S
C245        C246   1.405       .  A
C245        C250   1.394   1_554  A
C245        H252   1.083       .  S
C246       C1303   1.393   1_455  A
C247        C248   1.383   1_554  A
C247       C1302   1.393       .  A
C247        F254   1.360       .  S
C248       C1305   1.416       .  A
C248        H253   1.077       .  S
C249        C250   1.411   1_655  A
C249       C1304   1.416       .  A
C249        C265   1.501       .  S
C250        F251   1.357       .  S
C255        C256   1.410       .  A
C255        C260   1.382   1_556  A
C255        H262   1.069       .  S
C256       C1049   1.407   1_545  A
C257        C258   1.395       .  A
C257       C1048   1.407       .  A
C257        F264   1.355       .  S
C258       C1051   1.400       .  A
C258        H263   1.077       .  S
C259        C260   1.396   1_565  A
C259       C1050   1.400   1_554  A
C260        F261   1.360       .  S
C265       C1850   1.402       .  A
C265        C270   1.407   1_655  A
C266       C1849   1.402       .  A
C266        H271   1.083       .  S
C267        C268   1.385       .  A
C267        C503   1.465       .  S
C268       C1853   1.401       .  A
C268        H272   1.079       .  S
C269       C1852   1.401   1_445  A
C269        C520   1.490       .  S
C270        H273   1.077       .  S
C274        C275   1.400       .  A
C274        C279   1.413       .  A
C274        C480   1.513   1_554  S
C275        C276   1.395       .  A
C275        H280   1.078       .  S
C276        C277   1.396       .  A
C276        C490   1.475   1_554  S
C277        C278   1.405       .  A
C277        H281   1.081       .  S
C278        C279   1.406       .  A
C278        C473   1.514   1_554  S
C279        H282   1.072       .  S
C283        C284   1.399       .  A
C283        C288   1.405       .  A
C283        C450   1.482       .  S
C284        C285   1.391       .  A
C284        H289   1.083       .  S
C285        C286   1.384       .  A
C285        C460   1.461       .  S
C286        C287   1.394       .  A
C286        H290   1.080       .  S
C287        C288   1.415       .  A
C287        C440   1.500       .  S
C288        H291   1.079       .  S
C292        C293   1.397       .  A
C292        C297   1.452       .  A
C292        C366   1.522       .  S
C293        C294   1.387       .  A
C293        H298   1.084       .  S
C294        C295   1.380       .  A
C294        C500   1.441       .  S
C295        C296   1.388       .  A
C295        H299   1.086       .  S
C296        C297   1.455       .  A
C296        C415   1.525       .  S
C297        H300   1.082       .  S
C301        C302   1.413       .  A
C301        C306   1.441       .  A
C301        C436   1.515       .  S
C302        C303   1.405       .  A
C302        H307   1.083       .  S
C303        C304   1.398       .  A
C303        C470   1.497       .  S
C304        C305   1.386       .  A
C304        H308   1.076       .  S
C305        C306   1.436       .  A
C305        C411   1.515       .  S
C306        H309   1.082       .  S
C310        C311   1.409       .  A
C310        C315   1.434       .  A
C310        C418   1.496       .  S
C311        C312   1.394       .  A
C311        H316   1.083       .  S
C312        C313   1.394       .  A
C312        C443   1.485       .  S
C313        C314   1.388       .  A
C313        H317   1.083       .  S
C314        C315   1.432       .  A
C314        C362   1.495       .  S
C315        H318   1.082       .  S
C319        C320   1.401       .  A
C319        C852   1.461       .  A
C319        C361   1.526       .  S
C320        C849   1.389       .  A
C320        H325   1.084       .  S
C321        C848   1.389       .  A
C321        C322   1.388   1_565  A
C321        C523   1.460       .  S
C322        C323   1.378       .  A
C322        H326   1.078       .  S
C323        C324   1.452       .  A
C323        C414   1.540       .  S
C324        C847   1.461   1_545  A
C324        H327   1.082       .  S
C328        C329   1.448       .  A
C328        C333   1.401   1_455  A
C328       C1489   1.499       .  S
C329        C330   1.437       .  A
C329        H334   1.082       .  S
C330        C331   1.382       .  A
C330        C347   1.510       .  S
C331        C332   1.382   1_455  A
C331        H335   1.086       .  S
C332        C333   1.383       .  A
C332       C1509   1.446       .  S
C333       H1392   1.084       .  S
H336       C1389   1.084       .  S
C337        C338   1.394       .  A
C337        C342   1.440       .  A
C337        C422   1.497       .  S
C338        C339   1.371       .  A
C338        H871   1.085       .  S
C339        C340   1.379       .  A
C339        C991   1.439       .  S
C340        C341   1.393       .  A
C340        H344   1.085       .  S
C341        C342   1.443       .  A
C341        C351   1.501       .  S
C342        H345   1.082       .  S
H343        C866   1.085       .  S
O346        C361   1.260       .  A
O346       Al354   1.911       .  S
C347        O357   1.253       .  A
C347        O348   1.281       .  A
O348       Al350   1.962       .  S
O349        C351   1.252       .  A
O349       Al350   1.895       .  S
Al350       O358   1.918       .  S
Al350       O360   2.003       .  S
Al350       O359   1.790       .  S
C351        O364   1.281       .  A
O352        C362   1.251       .  A
O352       Al354   1.885       .  S
O353        C366   1.261       .  A
O353       Al363   1.922       .  S
Al354       O367   1.981       .  S
Al354       O364   1.964       .  S
Al354       O359   1.788       .  S
O355        C362   1.281       .  A
O355       Al363   1.970       .  S
O356        C365   1.288       .  A
O356       Al363   1.990       .  S
O357       Al363   1.912       .  S
O358        C365   1.263       .  A
O359       Al363   1.790       .  S
O360        C361   1.287       .  A
C365        C368   1.525       .  S
C366        O367   1.284       .  A
C368        C369   1.402       .  A
C368       C1429   1.462       .  A
C369        C370   1.386       .  A
C369        H374   1.084       .  S
C370       C1427   1.392   1_455  A
C370        C510   1.468       .  S
C371       C1426   1.392       .  A
C371        C372   1.382       .  A
C371        H375   1.079       .  S
C372        C373   1.455       .  A
C372        C410   1.541       .  S
C373       C1424   1.462       .  A
C373        H376   1.082       .  S
C377        C378   1.442       .  A
C377        C382   1.412   1_545  A
C377        C432   1.522       .  S
C378        C379   1.442       .  A
C378        H383   1.082       .  S
C379        C380   1.388       .  A
C379        C396   1.509       .  S
C380        C381   1.392   1_545  A
C380        H384   1.079       .  S
C381        C382   1.409       .  A
C381       C1011   1.504       .  S
C382        H913   1.082       .  S
H385        C910   1.082       .  S
C386        C387   1.400       .  A
C386        C391   1.446       .  A
C386       C1493   1.517       .  S
C387        C388   1.391       .  A
C387       H1448   1.084       .  S
C388        C389   1.385       .  A
C388       C1549   1.449       .  S
C389        C390   1.390       .  A
C389        H393   1.086       .  S
C390        C391   1.446       .  A
C390        C400   1.516       .  S
C391        H394   1.082       .  S
H392       C1443   1.084       .  S
O395        C410   1.258       .  A
C396        O406   1.252       .  A
C396        O397   1.285       .  A
O397       Al399   1.994       .  S
O398        C400   1.251       .  A
O398       Al399   1.901       .  S
Al399       O408   1.793       .  S
C400        O413   1.285       .  A
O401        C411   1.254       .  A
O401       Al403   1.907       .  S
O402        C415   1.257       .  A
Al403       O416   1.987   1_556  S
Al403       O413   1.982       .  S
Al403       O408   1.794       .  S
O404        C411   1.284       .  A
O404       Al412   1.977       .  S
O405        C414   1.289       .  A
O406       Al412   1.890       .  S
O407        C414   1.258       .  A
O408       Al412   1.785       .  S
O409        C410   1.293       .  A
O417        C432   1.265       .  A
O417       Al425   1.914       .  S
C418        O428   1.258       .  A
C418        O419   1.271       .  A
O419       Al421   1.939       .  S
O420        C422   1.260       .  A
O420      Al1477   1.910       .  S
Al421      O1476   1.910       .  S
Al421       O429   1.913       .  S
Al421      O1487   1.973       .  S
Al421       O958   1.810       .  S
C422        O963   1.275       .  A
O423       C1489   1.255       .  A
O423       Al425   1.897       .  S
O424       C1493   1.262       .  A
O424       Al962   1.911   1_545  S
Al425       O438   1.968       .  S
Al425       O435   1.925       .  S
Al425      O1486   1.795   1_545  S
O426        C433   1.274       .  A
O426       Al962   1.956   1_545  S
O427        C436   1.279       .  A
O427       Al434   1.967       .  S
O428       Al434   1.902       .  S
O429        C436   1.268       .  A
O430       Al949   1.810       .  S
O430      Al1481   1.795   1_565  S
O430       Al962   1.800       .  S
O431        C960   1.278       .  A
O431      Al1477   1.973       .  S
C432        O959   1.278   1_545  A
C433       C1384   1.499       .  S
C433       O1479   1.255       .  A
Al434       O952   1.911       .  S
Al434       O954   1.957       .  S
Al434       O958   1.800       .  S
O435        C950   1.275   1_545  A
C437       C1442   1.517       .  S
C437       O1480   1.262       .  A
C437        O438   1.280   1_655  A
C439        C440   1.404       .  A
C439        C444   1.390       .  A
C439        H446   1.080       .  S
C440        C441   1.420       .  A
C441        C442   1.383       .  A
C441        F448   1.354       .  S
C442        C443   1.398       .  A
C442        H447   1.084       .  S
C443        C444   1.417       .  A
C444        F445   1.357       .  S
C449        C450   1.411       .  A
C449        C454   1.393       .  A
C449        H456   1.082       .  S
C450        C451   1.415       .  A
C451        C452   1.374       .  A
C451        F458   1.354       .  S
C452        C453   1.393       .  A
C452        H457   1.086       .  S
C453        C454   1.396       .  A
C453       C1388   1.446       .  S
C454       F1511   1.357       .  S
F455       C1510   1.357       .  S
C459        C460   1.386       .  A
C459        C464   1.384       .  A
C459        H466   1.078       .  S
C460        C461   1.419       .  A
C461        C462   1.370       .  A
C461        F468   1.342       .  S
C462        C463   1.373       .  A
C462        H467   1.084       .  S
C463        C464   1.417       .  A
C463        C867   1.439       .  S
C464        F993   1.356       .  S
F465        C992   1.356       .  S
C469        C470   1.408       .  A
C469        C474   1.398       .  A
C469        H476   1.082       .  S
C470        C471   1.403       .  A
C471        C472   1.388       .  A
C471        F478   1.359       .  S
C472        C473   1.418       .  A
C472        H477   1.077       .  S
C473        C474   1.418       .  A
C474        F475   1.355       .  S
C479        C480   1.407       .  A
C479        C484   1.388       .  A
C479        H486   1.077       .  S
C480        C481   1.427       .  A
C481        C482   1.389       .  A
C481        F488   1.355       .  S
C482        C483   1.400       .  A
C482        H487   1.081       .  S
C483        C484   1.414       .  A
C483        C909   1.504       .  S
C484       F1013   1.356       .  S
F485       C1012   1.356       .  S
C489        C490   1.380       .  A
C489        C494   1.379       .  A
C489        H496   1.058   1_556  S
C490        C491   1.421       .  A
C491        C492   1.386       .  A
C491        F498   1.346       .  S
C492        C493   1.382       .  A
C492        H497   1.084       .  S
C493        C494   1.408       .  A
C493       C1444   1.449       .  S
C494        F495   1.356   1_455  S
C499        C500   1.378       .  A
C499        C504   1.379       .  A
C499        H506   1.084       .  S
C501        C502   1.376       .  A
C501        F508   1.353       .  S
C502        H507   1.064       .  S
C503        C504   1.415       .  A
C504        F505   1.337       .  S
C509        C510   1.405       .  A
C509        C514   1.394       .  A
C509        H516   1.083       .  S
C510       C1567   1.393   1_455  A
C511       C1566   1.393       .  A
C511        C512   1.383       .  A
C511        F518   1.360       .  S
C512       C1569   1.416       .  A
C512        H517   1.077       .  S
C513       C1568   1.416       .  A
C513        C514   1.411   1_655  A
C514        F515   1.357       .  S
C519        C520   1.410       .  A
C519        C524   1.382       .  A
C519        H526   1.069       .  S
C520        C785   1.407   1_545  A
C521        C784   1.407       .  A
C521        C522   1.395       .  A
C521        F528   1.355       .  S
C522        C787   1.400   1_556  A
C522        H527   1.077       .  S
C523        C786   1.400       .  A
C523        C524   1.396   1_565  A
C524        F525   1.360       .  S
C529       C1058   1.402       .  A
C529        C534   1.407   1_655  A
C529       C1041   1.501       .  S
C530       C1057   1.402       .  A
C530        C795   1.394   1_545  A
C530        H535   1.083       .  S
C531        C794   1.394   1_565  A
C531        C532   1.385       .  A
C531        C767   1.465       .  S
C532       C1061   1.401   1_565  A
C532        H536   1.079       .  S
C533       C1060   1.401   1_455  A
C533        C798   1.407       .  A
C533        C784   1.490       .  S
C534        C797   1.407       .  A
C534        H537   1.077       .  S
C538        C539   1.400       .  A
C538        C543   1.413       .  A
C538        C744   1.513       .  S
C539        C540   1.395       .  A
C539        H544   1.078       .  S
C540        C541   1.396       .  A
C540        C754   1.475       .  S
C541        C542   1.405       .  A
C541        H545   1.081       .  S
C542        C543   1.406       .  A
C542        C737   1.514       .  S
C543        H546   1.072       .  S
C547        C548   1.399       .  A
C547        C552   1.405       .  A
C547        C714   1.482       .  S
C548        C549   1.391       .  A
C548        H553   1.083       .  S
C549        C550   1.384       .  A
C549        C724   1.461       .  S
C550        C551   1.394       .  A
C550        H554   1.080       .  S
C551        C552   1.415       .  A
C551        C704   1.500       .  S
C552        H555   1.079       .  S
C556        C557   1.397       .  A
C556        C561   1.452       .  A
C556        C630   1.522       .  S
C557        C558   1.387       .  A
C557        H562   1.084       .  S
C558        C559   1.380       .  A
C558        C764   1.441       .  S
C559        C560   1.388       .  A
C559        H563   1.086       .  S
C560        C561   1.455       .  A
C560        C679   1.525       .  S
C561        H564   1.082       .  S
C565        C566   1.413       .  A
C565        C570   1.441       .  A
C565        C700   1.515       .  S
C566        C567   1.405       .  A
C566        H571   1.083       .  S
C567        C568   1.398       .  A
C567        C734   1.497       .  S
C568        C569   1.386       .  A
C568        H572   1.076       .  S
C569        C570   1.436       .  A
C569        C675   1.515       .  S
C570        H573   1.082       .  S
C574        C575   1.409       .  A
C574        C579   1.434       .  A
C574        C682   1.496       .  S
C575        C576   1.394       .  A
C575        H580   1.083       .  S
C576        C577   1.394       .  A
C576        C707   1.485       .  S
C577        C578   1.388       .  A
C577        H581   1.083       .  S
C578        C579   1.432       .  A
C578        C626   1.495       .  S
C579        H582   1.082       .  S
C583        C584   1.401       .  A
C583        C625   1.526       .  S
C584        H589   1.084       .  S
C585        C586   1.388       .  A
C585        C787   1.460       .  S
C586        C587   1.377       .  A
C586        H590   1.078       .  S
C587        C588   1.452       .  A
C587        C678   1.540       .  S
C588        H591   1.082       .  S
C592        C593   1.448       .  A
C592        C597   1.401   1_455  A
C592       C1753   1.499       .  S
C593        C594   1.437       .  A
C593        H598   1.082       .  S
C594        C595   1.382       .  A
C594        C611   1.510       .  S
C595        C596   1.382   1_455  A
C595        H599   1.086       .  S
C596        C597   1.383       .  A
C596       C1773   1.446       .  S
C597       H1656   1.084       .  S
H600       C1653   1.084       .  S
C601        C602   1.395   1_565  A
C601        C606   1.440       .  A
C601        C686   1.497       .  S
C602        C603   1.371       .  A
C603        C604   1.379   1_545  A
C604        C605   1.393       .  A
C604        H608   1.085       .  S
C605        C606   1.443       .  A
C605        C615   1.501       .  S
C606        H609   1.082       .  S
O610        C625   1.260       .  A
O610       Al618   1.911       .  S
C611        O621   1.253       .  A
C611        O612   1.281       .  A
O612       Al614   1.962       .  S
O613        C615   1.252       .  A
O613       Al614   1.895       .  S
Al614       O622   1.918       .  S
Al614       O624   2.003       .  S
Al614       O623   1.790       .  S
C615        O628   1.281       .  A
O616        C626   1.251       .  A
O616       Al618   1.885       .  S
O617        C630   1.261       .  A
O617       Al627   1.922       .  S
Al618       O631   1.981       .  S
Al618       O628   1.964       .  S
Al618       O623   1.788       .  S
O619        C626   1.281       .  A
O619       Al627   1.970       .  S
O620        C629   1.288       .  A
O620       Al627   1.990       .  S
O621       Al627   1.912       .  S
O622        C629   1.263       .  A
O623       Al627   1.790       .  S
O624        C625   1.287       .  A
C629        C632   1.525       .  S
C630        O631   1.284       .  A
C632        C633   1.402       .  A
C632       C1693   1.462       .  A
C633        C634   1.386       .  A
C633        H638   1.084       .  S
C634       C1691   1.392   1_455  A
C634        C774   1.468       .  S
C635       C1690   1.392       .  A
C635        C636   1.382       .  A
C635        H639   1.079       .  S
C636        C637   1.455       .  A
C636        C674   1.541       .  S
C637       C1688   1.462       .  A
C637        H640   1.082       .  S
C641        C642   1.442       .  A
C641        C646   1.412       .  A
C641        C696   1.522       .  S
C642        C643   1.442       .  A
C642        H647   1.082       .  S
C643        C644   1.388       .  A
C643        C660   1.509       .  S
C644        C645   1.392       .  A
C644        H648   1.079       .  S
C645        C646   1.409       .  A
C650        C651   1.400       .  A
C650        C655   1.446       .  A
C650       C1757   1.517       .  S
C651        C652   1.391       .  A
C651       H1712   1.084       .  S
C652        C653   1.385       .  A
C652       C1813   1.449       .  S
C653        C654   1.390       .  A
C653        H657   1.086       .  S
C654        C655   1.446       .  A
C654        C664   1.516       .  S
C655        H658   1.082       .  S
H656       C1707   1.084       .  S
O659        C674   1.258       .  A
O659       Al931   1.928   1_554  S
C660        O670   1.252       .  A
C660        O661   1.285       .  A
O661       Al663   1.995       .  S
O662        C664   1.251       .  A
O662       Al663   1.901       .  S
Al663       O935   1.925       .  S
Al663       O937   2.002       .  S
Al663       O672   1.793       .  S
C664        O677   1.285       .  A
O665        C675   1.254       .  A
O665       Al667   1.907       .  S
O666        C679   1.257       .  A
O666       Al940   1.905   1_554  S
Al667       O923   1.928       .  S
Al667       O680   1.988       .  S
Al667       O677   1.982       .  S
Al667       O672   1.794       .  S
O668        C675   1.284       .  A
O668       Al676   1.977       .  S
O669        C678   1.289   1_556  A
O669       Al940   1.979       .  S
O670       Al676   1.890       .  S
O671        C678   1.258       .  A
O671       Al927   1.925   1_554  S
O672       Al676   1.785       .  S
O673        C674   1.293       .  A
O673       Al927   2.002   1_554  S
Al676       O930   1.905       .  S
Al676       O933   1.979       .  S
C679        O944   1.286       .  A
O680        C943   1.286       .  A
O681        C696   1.265       .  A
O681       Al689   1.914       .  S
C682        O692   1.258       .  A
C682        O683   1.271       .  A
O683       Al685   1.939       .  S
O684        C686   1.260       .  A
O684      Al1741   1.910       .  S
Al685      O1740   1.910       .  S
Al685       O693   1.913       .  S
Al685      O1751   1.973       .  S
O687       C1753   1.255       .  A
O687       Al689   1.897       .  S
O688       C1757   1.262       .  A
Al689       O702   1.968       .  S
Al689       O699   1.925       .  S
Al689      O1750   1.795       .  S
O690        C697   1.274       .  A
O691        C700   1.279       .  A
O691       Al698   1.967       .  S
O692       Al698   1.902       .  S
O693        C700   1.268       .  A
O694      Al1745   1.795       .  S
O695      Al1741   1.973       .  S
C697       C1648   1.499       .  S
C697       O1743   1.255       .  A
C701       C1706   1.517       .  S
C701       O1744   1.262       .  A
C701        O702   1.280   1_655  A
C703        C704   1.404       .  A
C703        C708   1.390       .  A
C703        H710   1.080       .  S
C704        C705   1.420       .  A
C705        C706   1.383       .  A
C705        F712   1.354       .  S
C706        C707   1.398       .  A
C706        H711   1.084       .  S
C707        C708   1.417       .  A
C708        F709   1.357       .  S
C713        C714   1.411       .  A
C713        C718   1.393       .  A
C713        H720   1.082       .  S
C714        C715   1.415       .  A
C715        C716   1.374       .  A
C715        F722   1.354       .  S
C716        C717   1.393       .  A
C716        H721   1.086       .  S
C717        C718   1.396       .  A
C717       C1652   1.446       .  S
C718       F1775   1.357       .  S
F719       C1774   1.357       .  S
C723        C724   1.386       .  A
C723        C728   1.384       .  A
C723        H730   1.078       .  S
C724        C725   1.419       .  A
C725        C726   1.370       .  A
C725        F732   1.342       .  S
C726        C727   1.373       .  A
C726        H731   1.084       .  S
C727        C728   1.417       .  A
C733        C734   1.408       .  A
C733        C738   1.398       .  A
C733        H740   1.082       .  S
C734        C735   1.403       .  A
C735        C736   1.388       .  A
C735        F742   1.359       .  S
C736        C737   1.418       .  A
C736        H741   1.077       .  S
C737        C738   1.418       .  A
C738        F739   1.355       .  S
C743        C744   1.407       .  A
C743        C748   1.388       .  A
C743        H750   1.077       .  S
C744        C745   1.427       .  A
C745        C746   1.389       .  A
C745        F752   1.355       .  S
C746        C747   1.400       .  A
C746        H751   1.081       .  S
C747        C748   1.414       .  A
C753        C754   1.380       .  A
C753        C758   1.379       .  A
C753        H760   1.058       .  S
C754        C755   1.421       .  A
C755        C756   1.386       .  A
C755        F762   1.346       .  S
C756        C757   1.382       .  A
C756        H761   1.084       .  S
C757        C758   1.408       .  A
C757       C1708   1.449       .  S
C758        F759   1.356   1_455  S
C763        C764   1.378       .  A
C763        C768   1.379   1_554  A
C763        H770   1.084       .  S
C764       C1029   1.411   1_554  A
C765       C1028   1.411       .  A
C765        C766   1.376       .  A
C765        F772   1.353       .  S
C766       C1031   1.375       .  A
C766        H771   1.064       .  S
C767       C1030   1.375       .  A
C767        C768   1.415       .  A
C768        F769   1.337       .  S
C773        C774   1.405       .  A
C773        C778   1.394   1_554  A
C773        H780   1.083       .  S
C774       C1831   1.393   1_455  A
C775       C1830   1.393       .  A
C775        C776   1.383   1_554  A
C775        F782   1.360       .  S
C776       C1833   1.416       .  A
C776        H781   1.077       .  S
C777       C1832   1.416       .  A
C777        C778   1.411   1_655  A
C777        C793   1.501       .  S
C778        F779   1.357       .  S
C783        C784   1.410       .  A
C783        C788   1.382   1_556  A
C783        H790   1.069       .  S
C785        C786   1.395       .  A
C785        F792   1.355       .  S
C786        H791   1.077       .  S
C787        C788   1.396       .  A
C788        F789   1.360       .  S
C793       C1322   1.402       .  A
C793        C798   1.407   1_655  A
C794       C1321   1.402       .  A
C794        H799   1.083       .  S
C795        C796   1.385       .  A
C795       C1031   1.465       .  S
C796       C1325   1.401   1_565  A
C796        H800   1.079       .  S
C797       C1324   1.401   1_455  A
C797       C1048   1.490       .  S
C798        H801   1.077       .  S
C802        C803   1.400       .  A
C802        C807   1.413       .  A
C802       C1008   1.513   1_554  S
C803        C804   1.395       .  A
C803        H808   1.078       .  S
C804        C805   1.396       .  A
C804       C1018   1.475   1_554  S
C805        C806   1.405       .  A
C805        H809   1.081       .  S
C806        C807   1.406       .  A
C806       C1001   1.514   1_554  S
C807        H810   1.072       .  S
C811        C812   1.399       .  A
C811        C816   1.405       .  A
C811        C978   1.482       .  S
C812        C813   1.391       .  A
C812        H817   1.083       .  S
C813        C814   1.384       .  A
C813        C988   1.461       .  S
C814        C815   1.394       .  A
C814        H818   1.080       .  S
C815        C816   1.415       .  A
C815        C968   1.500       .  S
C816        H819   1.079       .  S
C820        C821   1.397       .  A
C820        C825   1.452       .  A
C820        C894   1.522       .  S
C821        C822   1.387       .  A
C821        H826   1.084       .  S
C822        C823   1.380       .  A
C822       C1028   1.441       .  S
C823        C824   1.388       .  A
C823        H827   1.086       .  S
C824        C825   1.455       .  A
C824        C943   1.525       .  S
C825        H828   1.082       .  S
C829        C830   1.413       .  A
C829        C834   1.441       .  A
C829        C964   1.515       .  S
C830        C831   1.405       .  A
C830        H835   1.083       .  S
C831        C832   1.398       .  A
C831        C998   1.497       .  S
C832        C833   1.386       .  A
C832        H836   1.076       .  S
C833        C834   1.436       .  A
C833        C939   1.515       .  S
C834        H837   1.082       .  S
C838        C839   1.409       .  A
C838        C843   1.434       .  A
C838        C946   1.496       .  S
C839        C840   1.394       .  A
C839        H844   1.083       .  S
C840        C841   1.394       .  A
C840        C971   1.485       .  S
C841        C842   1.388       .  A
C841        H845   1.083       .  S
C842        C843   1.432       .  A
C842        C890   1.495       .  S
C843        H846   1.082       .  S
C847        C848   1.401       .  A
C847        C889   1.526       .  S
C848        H853   1.084       .  S
C849        C850   1.388       .  A
C849       C1051   1.460       .  S
C850        C851   1.377       .  A
C850        H854   1.078       .  S
C851        C852   1.452       .  A
C851        C942   1.540       .  S
C852        H855   1.082       .  S
C856        C857   1.448       .  A
C856        C861   1.401   1_455  A
C856       C2017   1.499       .  S
C857        C858   1.437       .  A
C857        H862   1.082       .  S
C858        C859   1.382       .  A
C858        C875   1.510       .  S
C859        C860   1.382   1_455  A
C859        H863   1.086       .  S
C860        C861   1.383       .  A
C860       C2037   1.446       .  S
C861       H1920   1.084       .  S
H864       C1917   1.084       .  S
C865        C866   1.395   1_565  A
C865        C870   1.440       .  A
C865        C950   1.497       .  S
C866        C867   1.371       .  A
C867        C868   1.379   1_545  A
C868        C869   1.393       .  A
C868        H872   1.085       .  S
C869        C870   1.443       .  A
C869        C879   1.501       .  S
C870        H873   1.082       .  S
O874        C889   1.260       .  A
O874       Al882   1.911       .  S
C875        O885   1.253       .  A
C875        O876   1.281       .  A
O876       Al878   1.962       .  S
O877        C879   1.252       .  A
O877       Al878   1.895       .  S
Al878       O886   1.918       .  S
Al878       O888   2.003       .  S
Al878       O887   1.790       .  S
C879        O892   1.281       .  A
O880        C890   1.251       .  A
O880       Al882   1.885       .  S
O881        C894   1.261       .  A
O881       Al891   1.922       .  S
Al882       O895   1.981       .  S
Al882       O892   1.964       .  S
Al882       O887   1.788       .  S
O883        C890   1.281       .  A
O883       Al891   1.970       .  S
O884        C893   1.288       .  A
O884       Al891   1.990       .  S
O885       Al891   1.912       .  S
O886        C893   1.263       .  A
O887       Al891   1.790       .  S
O888        C889   1.287       .  A
C893        C896   1.525       .  S
C894        O895   1.284       .  A
C896        C897   1.402       .  A
C896       C1957   1.462       .  A
C897        C898   1.386       .  A
C897        H902   1.084       .  S
C898       C1955   1.392   1_455  A
C898       C1038   1.468       .  S
C899       C1954   1.392       .  A
C899        C900   1.382       .  A
C899        H903   1.079       .  S
C900        C901   1.455       .  A
C900        C938   1.541       .  S
C901       C1952   1.462       .  A
C901        H904   1.082       .  S
C905        C906   1.442       .  A
C905        C910   1.412       .  A
C905        C960   1.522       .  S
C906        C907   1.442       .  A
C906        H911   1.082       .  S
C907        C908   1.388       .  A
C907        C924   1.509       .  S
C908        C909   1.392       .  A
C908        H912   1.079       .  S
C909        C910   1.409       .  A
C914        C915   1.400       .  A
C914        C919   1.446       .  A
C914       C2021   1.517       .  S
C915        C916   1.391       .  A
C915       H1976   1.084       .  S
C916        C917   1.385       .  A
C916       C2077   1.449       .  S
C917        C918   1.390       .  A
C917        H921   1.086       .  S
C918        C919   1.446       .  A
C918        C928   1.516       .  S
C919        H922   1.082       .  S
H920       C1971   1.084       .  S
O923        C938   1.258       .  A
C924        O934   1.252       .  A
C924        O925   1.285       .  A
O925       Al927   1.995       .  S
O926        C928   1.251       .  A
O926       Al927   1.901       .  S
Al927       O936   1.793       .  S
C928        O941   1.285       .  A
O929        C939   1.254       .  A
O929       Al931   1.907       .  S
O930        C943   1.257       .  A
Al931       O944   1.988   1_556  S
Al931       O941   1.982       .  S
Al931       O936   1.794       .  S
O932        C939   1.284       .  A
O932       Al940   1.977       .  S
O933        C942   1.289       .  A
O934       Al940   1.890       .  S
O935        C942   1.258       .  A
O936       Al940   1.785       .  S
O937        C938   1.293       .  A
O945        C960   1.265       .  A
O945       Al953   1.914       .  S
C946        O956   1.258       .  A
C946        O947   1.271       .  A
O947       Al949   1.939       .  S
O948        C950   1.260       .  A
O948      Al2005   1.910       .  S
Al949      O2004   1.910       .  S
Al949       O957   1.913       .  S
Al949      O2015   1.973       .  S
O951       C2017   1.255       .  A
O951       Al953   1.897       .  S
O952       C2021   1.262       .  A
Al953       O966   1.968       .  S
Al953       O963   1.925       .  S
Al953      O2014   1.795       .  S
O954        C961   1.274       .  A
O955        C964   1.279       .  A
O955       Al962   1.967       .  S
O956       Al962   1.902       .  S
O957        C964   1.268       .  A
O958      Al2009   1.795       .  S
O959      Al2005   1.973       .  S
C961       C1912   1.499       .  S
C961       O2007   1.255       .  A
C965       C1970   1.517       .  S
C965       O2008   1.262       .  A
C965        O966   1.280   1_655  A
C967        C968   1.404       .  A
C967        C972   1.390       .  A
C967        H974   1.080       .  S
C968        C969   1.420       .  A
C969        C970   1.383       .  A
C969        F976   1.354       .  S
C970        C971   1.398       .  A
C970        H975   1.084       .  S
C971        C972   1.417       .  A
C972        F973   1.357       .  S
C977        C978   1.411       .  A
C977        C982   1.393       .  A
C977        H984   1.082       .  S
C978        C979   1.415       .  A
C979        C980   1.374       .  A
C979        F986   1.354       .  S
C980        C981   1.393       .  A
C980        H985   1.086       .  S
C981        C982   1.396       .  A
C981       C1916   1.446       .  S
C982       F2039   1.357       .  S
F983       C2038   1.357       .  S
C987        C988   1.386       .  A
C987        C992   1.384       .  A
C987        H994   1.078       .  S
C988        C989   1.419       .  A
C989        C990   1.370       .  A
C989        F996   1.342       .  S
C990        C991   1.373       .  A
C990        H995   1.084       .  S
C991        C992   1.417       .  A
C997        C998   1.408       .  A
C997       C1002   1.398       .  A
C997       H1004   1.082       .  S
C998        C999   1.403       .  A
C999       C1000   1.388       .  A
C999       F1006   1.359       .  S
C1000      C1001   1.418       .  A
C1000      H1005   1.077       .  S
C1001      C1002   1.418       .  A
C1002      F1003   1.355       .  S
C1007      C1008   1.407       .  A
C1007      C1012   1.388       .  A
C1007      H1014   1.077       .  S
C1008      C1009   1.427       .  A
C1009      C1010   1.389       .  A
C1009      F1016   1.355       .  S
C1010      C1011   1.400       .  A
C1010      H1015   1.081       .  S
C1011      C1012   1.414       .  A
C1017      C1018   1.380       .  A
C1017      C1022   1.379       .  A
C1017      H1024   1.058   1_556  S
C1018      C1019   1.421       .  A
C1019      C1020   1.386       .  A
C1019      F1026   1.346       .  S
C1020      C1021   1.382       .  A
C1020      H1025   1.084       .  S
C1021      C1022   1.408       .  A
C1021      C1972   1.449       .  S
C1022      F1023   1.356   1_455  S
C1027      C1028   1.378       .  A
C1027      C1032   1.379       .  A
C1027      H1034   1.084       .  S
C1029      C1030   1.376       .  A
C1029      F1036   1.353       .  S
C1030      H1035   1.064       .  S
C1031      C1032   1.415       .  A
C1032      F1033   1.337       .  S
C1037      C1038   1.405       .  A
C1037      C1042   1.394       .  A
C1037      H1044   1.083       .  S
C1038      C2095   1.393   1_455  A
C1039      C2094   1.393       .  A
C1039      C1040   1.383       .  A
C1039      F1046   1.360       .  S
C1040      C2097   1.416       .  A
C1040      H1045   1.077       .  S
C1041      C2096   1.416       .  A
C1041      C1042   1.411   1_655  A
C1042      F1043   1.357       .  S
C1047      C1048   1.410       .  A
C1047      C1052   1.382       .  A
C1047      H1054   1.069       .  S
C1049      C1050   1.395       .  A
C1049      F1056   1.355       .  S
C1050      H1055   1.077       .  S
C1051      C1052   1.396       .  A
C1052      F1053   1.360       .  S
C1057      C1062   1.407       .  A
C1057      C1569   1.501       .  S
C1058      C1323   1.394       .  A
C1058      H1063   1.083       .  S
C1059      C1322   1.394       .  A
C1059      C1060   1.385       .  A
C1059      C1295   1.465       .  S
C1060      H1064   1.079       .  S
C1061      C1326   1.407       .  A
C1061      C1312   1.490       .  S
C1062      C1325   1.407       .  A
C1062      H1065   1.077       .  S
C1066      C1067   1.400       .  A
C1066      C1071   1.413       .  A
C1066      C1272   1.513       .  S
C1067      C1068   1.395       .  A
C1067      H1072   1.078       .  S
C1068      C1069   1.396       .  A
C1068      C1282   1.475       .  S
C1069      C1070   1.405       .  A
C1069      H1073   1.081       .  S
C1070      C1071   1.406       .  A
C1070      C1265   1.514       .  S
C1071      H1074   1.072       .  S
C1075      C1076   1.399       .  A
C1075      C1080   1.405       .  A
C1075      C1242   1.482       .  S
C1076      C1077   1.391       .  A
C1076      H1081   1.083       .  S
C1077      C1078   1.384       .  A
C1077      C1252   1.461       .  S
C1078      C1079   1.394       .  A
C1078      H1082   1.080       .  S
C1079      C1080   1.415       .  A
C1079      C1232   1.500       .  S
C1080      H1083   1.079       .  S
C1084      C1085   1.397       .  A
C1084      C1089   1.452       .  A
C1084      C1158   1.522       .  S
C1085      C1086   1.387       .  A
C1085      H1090   1.084       .  S
C1086      C1087   1.380       .  A
C1086      C1292   1.441       .  S
C1087      C1088   1.388       .  A
C1087      H1091   1.086       .  S
C1088      C1089   1.455       .  A
C1088      C1207   1.525       .  S
C1089      H1092   1.082       .  S
C1093      C1094   1.413       .  A
C1093      C1098   1.441       .  A
C1093      C1228   1.515       .  S
C1094      C1095   1.405       .  A
C1094      H1099   1.083       .  S
C1095      C1096   1.398       .  A
C1095      C1262   1.497       .  S
C1096      C1097   1.386       .  A
C1096      H1100   1.076       .  S
C1097      C1098   1.436       .  A
C1097      C1203   1.515       .  S
C1098      H1101   1.082       .  S
C1102      C1103   1.409       .  A
C1102      C1107   1.434       .  A
C1102      C1210   1.496       .  S
C1103      C1104   1.394       .  A
C1103      H1108   1.083       .  S
C1104      C1105   1.394       .  A
C1104      C1235   1.485       .  S
C1105      C1106   1.388       .  A
C1105      H1109   1.083       .  S
C1106      C1107   1.432       .  A
C1106      C1154   1.495       .  S
C1107      H1110   1.082       .  S
C1111      C1112   1.401       .  A
C1111      C1644   1.461       .  A
C1111      C1153   1.526       .  S
C1112      C1641   1.389       .  A
C1112      H1117   1.084       .  S
C1113      C1640   1.389       .  A
C1113      C1114   1.388   1_565  A
C1113      C1315   1.460       .  S
C1114      C1115   1.378       .  A
C1114      H1118   1.078       .  S
C1115      C1116   1.452       .  A
C1115      C1206   1.540       .  S
C1116      C1639   1.461   1_545  A
C1116      H1119   1.082       .  S
C1120      C1121   1.448       .  A
C1120      C1125   1.401       .  A
C1121      C1122   1.437       .  A
C1121      H1126   1.082       .  S
C1122      C1123   1.382       .  A
C1122      C1139   1.510       .  S
C1123      C1124   1.382       .  A
C1123      H1127   1.086       .  S
C1124      C1125   1.383       .  A
C1129      C1130   1.394       .  A
C1129      C1134   1.440       .  A
C1129      C1214   1.497       .  S
C1130      C1131   1.371       .  A
C1130      H1663   1.085       .  S
C1131      C1132   1.379       .  A
C1131      C1783   1.439       .  S
C1132      C1133   1.393       .  A
C1132      H1136   1.085       .  S
C1133      C1134   1.443       .  A
C1133      C1143   1.501       .  S
C1134      H1137   1.082       .  S
H1135      C1658   1.085       .  S
O1138      C1153   1.260       .  A
O1138     Al1146   1.911       .  S
C1139      O1149   1.253       .  A
C1139      O1140   1.281       .  A
O1140     Al1142   1.962       .  S
O1141      C1143   1.252       .  A
O1141     Al1142   1.895       .  S
Al1142     O1150   1.918       .  S
Al1142     O1152   2.003       .  S
Al1142     O1151   1.790       .  S
C1143      O1156   1.281       .  A
O1144      C1154   1.251       .  A
O1144     Al1146   1.885       .  S
O1145      C1158   1.261       .  A
O1145     Al1155   1.922       .  S
Al1146     O1159   1.981       .  S
Al1146     O1156   1.964       .  S
Al1146     O1151   1.788       .  S
O1147      C1154   1.281       .  A
O1147     Al1155   1.970       .  S
O1148      C1157   1.288       .  A
O1148     Al1155   1.990       .  S
O1149     Al1155   1.912       .  S
O1150      C1157   1.263       .  A
O1151     Al1155   1.790       .  S
O1152      C1153   1.287       .  A
C1157      C1160   1.525       .  S
C1158      O1159   1.284       .  A
C1160      C1161   1.402       .  A
C1161      C1162   1.386       .  A
C1161      H1166   1.084       .  S
C1162      C1302   1.468       .  S
C1163      C1164   1.382       .  A
C1163      H1167   1.079       .  S
C1164      C1165   1.455   1_655  A
C1164      C1202   1.541       .  S
C1165      H1168   1.082       .  S
C1169      C1170   1.442       .  A
C1169      C1174   1.412   1_545  A
C1169      C1224   1.522       .  S
C1170      C1171   1.442       .  A
C1170      H1175   1.082       .  S
C1171      C1172   1.388       .  A
C1171      C1188   1.509       .  S
C1172      C1173   1.392   1_545  A
C1172      H1176   1.079       .  S
C1173      C1174   1.409       .  A
C1173      C1803   1.504       .  S
C1174      H1705   1.082       .  S
H1177      C1702   1.082       .  S
C1178      C1179   1.400   1_655  A
C1178      C1183   1.446       .  A
C1179      C1180   1.391       .  A
C1180      C1181   1.385   1_455  A
C1181      C1182   1.390       .  A
C1181      H1185   1.086       .  S
C1182      C1183   1.446       .  A
C1182      C1192   1.516       .  S
C1183      H1186   1.082       .  S
O1187      C1202   1.258       .  A
O1187     Al1459   1.928   1_554  S
C1188      O1198   1.252       .  A
C1188      O1189   1.285       .  A
O1189     Al1191   1.994       .  S
O1190      C1192   1.251       .  A
O1190     Al1191   1.901       .  S
Al1191     O1463   1.925       .  S
Al1191     O1465   2.002       .  S
Al1191     O1200   1.793       .  S
C1192      O1205   1.285       .  A
O1193      C1203   1.254       .  A
O1193     Al1195   1.907       .  S
O1194      C1207   1.257       .  A
O1194     Al1468   1.905   1_554  S
Al1195     O1451   1.928       .  S
Al1195     O1208   1.987       .  S
Al1195     O1205   1.982       .  S
Al1195     O1200   1.794       .  S
O1196      C1203   1.284       .  A
O1196     Al1204   1.977       .  S
O1197      C1206   1.289   1_556  A
O1197     Al1468   1.979       .  S
O1198     Al1204   1.890       .  S
O1199      C1206   1.258       .  A
O1199     Al1455   1.925   1_554  S
O1200     Al1204   1.785       .  S
O1201      C1202   1.293       .  A
O1201     Al1455   2.002   1_554  S
Al1204     O1458   1.905       .  S
Al1204     O1461   1.979       .  S
C1207      O1472   1.286       .  A
O1208      C1471   1.286       .  A
O1209      C1224   1.265       .  A
O1209     Al1217   1.914       .  S
C1210      O1220   1.258       .  A
C1210      O1211   1.271       .  A
O1211     Al1213   1.939   1_655  S
O1212      C1214   1.260       .  A
Al1213     O1221   1.913   1_455  S
Al1213     O1750   1.810       .  S
C1214      O1755   1.275       .  A
O1215     Al1217   1.897       .  S
O1216     Al1754   1.911   1_545  S
Al1217     O1230   1.968       .  S
Al1217     O1227   1.925       .  S
O1218      C1225   1.274   1_655  A
O1218     Al1754   1.956   1_545  S
O1219      C1228   1.279       .  A
O1219     Al1226   1.967       .  S
O1220     Al1226   1.902       .  S
O1221      C1228   1.268       .  A
O1222     Al1741   1.810       .  S
O1222     Al1754   1.800   1_455  S
O1223      C1752   1.278       .  A
C1224      O1751   1.278   1_545  A
Al1226     O1744   1.911       .  S
Al1226     O1746   1.957       .  S
Al1226     O1750   1.800   1_655  S
O1227      C1742   1.275   1_545  A
C1229      O1230   1.280       .  A
C1231      C1232   1.404       .  A
C1231      C1236   1.390       .  A
C1231      H1238   1.080       .  S
C1232      C1233   1.420       .  A
C1233      C1234   1.383       .  A
C1233      F1240   1.354       .  S
C1234      C1235   1.398       .  A
C1234      H1239   1.084       .  S
C1235      C1236   1.417       .  A
C1236      F1237   1.357       .  S
C1241      C1242   1.411       .  A
C1241      C1246   1.393       .  A
C1241      H1248   1.082       .  S
C1242      C1243   1.415       .  A
C1243      C1244   1.374       .  A
C1243      F1250   1.354       .  S
C1244      C1245   1.393       .  A
C1244      H1249   1.086       .  S
C1245      C1246   1.396       .  A
C1251      C1252   1.386       .  A
C1251      C1256   1.384       .  A
C1251      H1258   1.078       .  S
C1252      C1253   1.419       .  A
C1253      C1254   1.370       .  A
C1253      F1260   1.342       .  S
C1254      C1255   1.373       .  A
C1254      H1259   1.084       .  S
C1255      C1256   1.417       .  A
C1255      C1659   1.439       .  S
C1256      F1785   1.356       .  S
F1257      C1784   1.356       .  S
C1261      C1262   1.408       .  A
C1261      C1266   1.398       .  A
C1261      H1268   1.082       .  S
C1262      C1263   1.403       .  A
C1263      C1264   1.388       .  A
C1263      F1270   1.359       .  S
C1264      C1265   1.418       .  A
C1264      H1269   1.077       .  S
C1265      C1266   1.418       .  A
C1266      F1267   1.355       .  S
C1271      C1272   1.407       .  A
C1271      C1276   1.388       .  A
C1271      H1278   1.077       .  S
C1272      C1273   1.427       .  A
C1273      C1274   1.389       .  A
C1273      F1280   1.355       .  S
C1274      C1275   1.400       .  A
C1274      H1279   1.081       .  S
C1275      C1276   1.414       .  A
C1275      C1701   1.504       .  S
C1276      F1805   1.356       .  S
F1277      C1804   1.356       .  S
C1281      C1282   1.380       .  A
C1281      C1286   1.379       .  A
C1281      H1288   1.058       .  S
C1282      C1283   1.421       .  A
C1283      C1284   1.386       .  A
C1283      F1290   1.346       .  S
C1284      C1285   1.382       .  A
C1284      H1289   1.084       .  S
C1285      C1286   1.408       .  A
C1286      F1287   1.356       .  S
C1291      C1292   1.378       .  A
C1291      C1296   1.379   1_554  A
C1291      H1298   1.084       .  S
C1292      C1557   1.411   1_554  A
C1293      C1556   1.411       .  A
C1293      C1294   1.376       .  A
C1293      F1300   1.353       .  S
C1294      C1559   1.375       .  A
C1294      H1299   1.064       .  S
C1295      C1558   1.375       .  A
C1295      C1296   1.415       .  A
C1296      F1297   1.337       .  S
C1301      C1302   1.405       .  A
C1301      C1306   1.394   1_554  A
C1301      H1308   1.083       .  S
C1303      C1304   1.383   1_554  A
C1303      F1310   1.360       .  S
C1304      H1309   1.077       .  S
C1305      C1306   1.411       .  A
C1305      C1321   1.501       .  S
C1306      F1307   1.357       .  S
C1311      C1312   1.410       .  A
C1311      C1316   1.382   1_556  A
C1311      H1318   1.069       .  S
C1312      C2105   1.407   1_545  A
C1313      C2104   1.407       .  A
C1313      C1314   1.395       .  A
C1313      F1320   1.355       .  S
C1314      C2107   1.400       .  A
C1314      H1319   1.077       .  S
C1315      C2106   1.400   1_554  A
C1315      C1316   1.396   1_565  A
C1316      F1317   1.360       .  S
C1321      C1326   1.407       .  A
C1322      H1327   1.083       .  S
C1323      C1324   1.385       .  A
C1323      C1559   1.465       .  S
C1324      H1328   1.079       .  S
C1325      C1576   1.490       .  S
C1326      H1329   1.077       .  S
C1330      C1331   1.400       .  A
C1330      C1335   1.413       .  A
C1330      C1536   1.513   1_554  S
C1331      C1332   1.395       .  A
C1331      H1336   1.078       .  S
C1332      C1333   1.396       .  A
C1332      C1546   1.475   1_554  S
C1333      C1334   1.405       .  A
C1333      H1337   1.081       .  S
C1334      C1335   1.406       .  A
C1334      C1529   1.514   1_554  S
C1335      H1338   1.072       .  S
C1339      C1340   1.399       .  A
C1339      C1344   1.405       .  A
C1339      C1506   1.482       .  S
C1340      C1341   1.391       .  A
C1340      H1345   1.083       .  S
C1341      C1342   1.384       .  A
C1341      C1516   1.461       .  S
C1342      C1343   1.394       .  A
C1342      H1346   1.080       .  S
C1343      C1344   1.415       .  A
C1343      C1496   1.500       .  S
C1344      H1347   1.079       .  S
C1348      C1349   1.397       .  A
C1348      C1353   1.452       .  A
C1348      C1422   1.522       .  S
C1349      C1350   1.387       .  A
C1349      H1354   1.084       .  S
C1350      C1351   1.380       .  A
C1350      C1556   1.441       .  S
C1351      C1352   1.388       .  A
C1351      H1355   1.086       .  S
C1352      C1353   1.455       .  A
C1352      C1471   1.525       .  S
C1353      H1356   1.082       .  S
C1357      C1358   1.413       .  A
C1357      C1362   1.441       .  A
C1357      C1492   1.515       .  S
C1358      C1359   1.405       .  A
C1358      H1363   1.083       .  S
C1359      C1360   1.398       .  A
C1359      C1526   1.497       .  S
C1360      C1361   1.386       .  A
C1360      H1364   1.076       .  S
C1361      C1362   1.436       .  A
C1361      C1467   1.515       .  S
C1362      H1365   1.082       .  S
C1366      C1367   1.409       .  A
C1366      C1371   1.434       .  A
C1366      C1474   1.496       .  S
C1367      C1368   1.394       .  A
C1367      H1372   1.083       .  S
C1368      C1369   1.394       .  A
C1368      C1499   1.485       .  S
C1369      C1370   1.388       .  A
C1369      H1373   1.083       .  S
C1370      C1371   1.432       .  A
C1370      C1418   1.495       .  S
C1371      H1374   1.082       .  S
C1375      C1376   1.401       .  A
C1375      C1908   1.461       .  A
C1375      C1417   1.526       .  S
C1376      C1905   1.389       .  A
C1376      H1381   1.084       .  S
C1377      C1904   1.389       .  A
C1377      C1378   1.388   1_565  A
C1377      C1579   1.460       .  S
C1378      C1379   1.378       .  A
C1378      H1382   1.078       .  S
C1379      C1380   1.452       .  A
C1379      C1470   1.540       .  S
C1380      C1903   1.461   1_545  A
C1380      H1383   1.082       .  S
C1384      C1385   1.448       .  A
C1384      C1389   1.401       .  A
C1385      C1386   1.437       .  A
C1385      H1390   1.082       .  S
C1386      C1387   1.382       .  A
C1386      C1403   1.510       .  S
C1387      C1388   1.382       .  A
C1387      H1391   1.086       .  S
C1388      C1389   1.383       .  A
C1393      C1394   1.394       .  A
C1393      C1398   1.440       .  A
C1393      C1478   1.497       .  S
C1394      C1395   1.371       .  A
C1394      H1927   1.085       .  S
C1395      C1396   1.379       .  A
C1395      C2047   1.439       .  S
C1396      C1397   1.393       .  A
C1396      H1400   1.085       .  S
C1397      C1398   1.443       .  A
C1397      C1407   1.501       .  S
C1398      H1401   1.082       .  S
H1399      C1922   1.085       .  S
O1402      C1417   1.260       .  A
O1402     Al1410   1.911       .  S
C1403      O1413   1.253       .  A
C1403      O1404   1.281       .  A
O1404     Al1406   1.962       .  S
O1405      C1407   1.252       .  A
O1405     Al1406   1.895       .  S
Al1406     O1414   1.918       .  S
Al1406     O1416   2.003       .  S
Al1406     O1415   1.790       .  S
C1407      O1420   1.281       .  A
O1408      C1418   1.251       .  A
O1408     Al1410   1.885       .  S
O1409      C1422   1.261       .  A
O1409     Al1419   1.922       .  S
Al1410     O1423   1.981       .  S
Al1410     O1420   1.964       .  S
Al1410     O1415   1.788       .  S
O1411      C1418   1.281       .  A
O1411     Al1419   1.970       .  S
O1412      C1421   1.288       .  A
O1412     Al1419   1.990       .  S
O1413     Al1419   1.912       .  S
O1414      C1421   1.263       .  A
O1415     Al1419   1.790       .  S
O1416      C1417   1.287       .  A
C1421      C1424   1.525       .  S
C1422      O1423   1.284       .  A
C1424      C1425   1.402       .  A
C1425      C1426   1.386       .  A
C1425      H1430   1.084       .  S
C1426      C1566   1.468       .  S
C1427      C1428   1.382       .  A
C1427      H1431   1.079       .  S
C1428      C1429   1.455   1_655  A
C1428      C1466   1.541       .  S
C1429      H1432   1.082       .  S
C1433      C1434   1.442       .  A
C1433      C1438   1.412   1_545  A
C1433      C1488   1.522       .  S
C1434      C1435   1.442       .  A
C1434      H1439   1.082       .  S
C1435      C1436   1.388       .  A
C1435      C1452   1.509       .  S
C1436      C1437   1.392   1_545  A
C1436      H1440   1.079       .  S
C1437      C1438   1.409       .  A
C1437      C2067   1.504       .  S
C1438      H1969   1.082       .  S
H1441      C1966   1.082       .  S
C1442      C1443   1.400   1_655  A
C1442      C1447   1.446       .  A
C1443      C1444   1.391       .  A
C1444      C1445   1.385   1_455  A
C1445      C1446   1.390       .  A
C1445      H1449   1.086       .  S
C1446      C1447   1.446       .  A
C1446      C1456   1.516       .  S
C1447      H1450   1.082       .  S
O1451      C1466   1.258       .  A
C1452      O1462   1.252       .  A
C1452      O1453   1.285       .  A
O1453     Al1455   1.994       .  S
O1454      C1456   1.251       .  A
O1454     Al1455   1.901       .  S
Al1455     O1464   1.793       .  S
C1456      O1469   1.285       .  A
O1457      C1467   1.254       .  A
O1457     Al1459   1.907       .  S
O1458      C1471   1.257       .  A
Al1459     O1472   1.987   1_556  S
Al1459     O1469   1.982       .  S
Al1459     O1464   1.794       .  S
O1460      C1467   1.284       .  A
O1460     Al1468   1.977       .  S
O1461      C1470   1.289       .  A
O1462     Al1468   1.890       .  S
O1463      C1470   1.258       .  A
O1464     Al1468   1.785       .  S
O1465      C1466   1.293       .  A
O1473      C1488   1.265       .  A
O1473     Al1481   1.914       .  S
C1474      O1484   1.258       .  A
C1474      O1475   1.271       .  A
O1475     Al1477   1.939   1_655  S
O1476      C1478   1.260       .  A
Al1477     O1485   1.913   1_455  S
Al1477     O2014   1.810       .  S
C1478      O2019   1.275       .  A
O1479     Al1481   1.897       .  S
O1480     Al2018   1.911   1_545  S
Al1481     O1494   1.968       .  S
Al1481     O1491   1.925       .  S
O1482      C1489   1.274   1_655  A
O1482     Al2018   1.956   1_545  S
O1483      C1492   1.279       .  A
O1483     Al1490   1.967       .  S
O1484     Al1490   1.902       .  S
O1485      C1492   1.268       .  A
O1486     Al2005   1.810       .  S
O1486     Al2018   1.800   1_455  S
O1487      C2016   1.278       .  A
C1488      O2015   1.278   1_545  A
Al1490     O2008   1.911       .  S
Al1490     O2010   1.957       .  S
Al1490     O2014   1.800   1_655  S
O1491      C2006   1.275   1_545  A
C1493      O1494   1.280       .  A
C1495      C1496   1.404       .  A
C1495      C1500   1.390       .  A
C1495      H1502   1.080       .  S
C1496      C1497   1.420       .  A
C1497      C1498   1.383       .  A
C1497      F1504   1.354       .  S
C1498      C1499   1.398       .  A
C1498      H1503   1.084       .  S
C1499      C1500   1.417       .  A
C1500      F1501   1.357       .  S
C1505      C1506   1.411       .  A
C1505      C1510   1.393       .  A
C1505      H1512   1.082       .  S
C1506      C1507   1.415       .  A
C1507      C1508   1.374       .  A
C1507      F1514   1.354       .  S
C1508      C1509   1.393       .  A
C1508      H1513   1.086       .  S
C1509      C1510   1.396       .  A
C1515      C1516   1.386       .  A
C1515      C1520   1.384       .  A
C1515      H1522   1.078       .  S
C1516      C1517   1.419       .  A
C1517      C1518   1.370       .  A
C1517      F1524   1.342       .  S
C1518      C1519   1.373       .  A
C1518      H1523   1.084       .  S
C1519      C1520   1.417       .  A
C1519      C1923   1.439       .  S
C1520      F2049   1.356       .  S
F1521      C2048   1.356       .  S
C1525      C1526   1.408       .  A
C1525      C1530   1.398       .  A
C1525      H1532   1.082       .  S
C1526      C1527   1.403       .  A
C1527      C1528   1.388       .  A
C1527      F1534   1.359       .  S
C1528      C1529   1.418       .  A
C1528      H1533   1.077       .  S
C1529      C1530   1.418       .  A
C1530      F1531   1.355       .  S
C1535      C1536   1.408       .  A
C1535      C1540   1.388       .  A
C1535      H1542   1.077       .  S
C1536      C1537   1.427       .  A
C1537      C1538   1.389       .  A
C1537      F1544   1.355       .  S
C1538      C1539   1.400       .  A
C1538      H1543   1.081       .  S
C1539      C1540   1.414       .  A
C1539      C1965   1.504       .  S
C1540      F2069   1.356       .  S
F1541      C2068   1.356       .  S
C1545      C1546   1.380       .  A
C1545      C1550   1.379       .  A
C1545      H1552   1.058   1_556  S
C1546      C1547   1.421       .  A
C1547      C1548   1.386       .  A
C1547      F1554   1.346       .  S
C1548      C1549   1.382       .  A
C1548      H1553   1.084       .  S
C1549      C1550   1.408       .  A
C1550      F1551   1.356       .  S
C1555      C1556   1.378       .  A
C1555      C1560   1.379       .  A
C1555      H1562   1.084       .  S
C1557      C1558   1.376       .  A
C1557      F1564   1.353       .  S
C1558      H1563   1.064       .  S
C1559      C1560   1.415       .  A
C1560      F1561   1.337       .  S
C1565      C1566   1.405       .  A
C1565      C1570   1.394       .  A
C1565      H1572   1.083       .  S
C1567      C1568   1.383       .  A
C1567      F1574   1.360       .  S
C1568      H1573   1.077       .  S
C1569      C1570   1.411       .  A
C1570      F1571   1.357       .  S
C1575      C1576   1.410       .  A
C1575      C1580   1.382       .  A
C1575      H1582   1.069       .  S
C1576      C1841   1.407   1_545  A
C1577      C1840   1.407       .  A
C1577      C1578   1.395       .  A
C1577      F1584   1.355       .  S
C1578      C1843   1.400   1_556  A
C1578      H1583   1.077       .  S
C1579      C1842   1.400       .  A
C1579      C1580   1.396   1_565  A
C1580      F1581   1.360       .  S
C1585      C1590   1.407       .  A
C1585      C2097   1.501       .  S
C1586      C1851   1.394   1_545  A
C1586      H1591   1.083       .  S
C1587      C1850   1.394   1_565  A
C1587      C1588   1.385       .  A
C1587      C1823   1.465       .  S
C1588      H1592   1.079       .  S
C1589      C1854   1.407       .  A
C1589      C1840   1.490       .  S
C1590      C1853   1.407       .  A
C1590      H1593   1.077       .  S
C1594      C1595   1.400       .  A
C1594      C1599   1.413       .  A
C1594      C1800   1.513       .  S
C1595      C1596   1.395       .  A
C1595      H1600   1.078       .  S
C1596      C1597   1.396       .  A
C1596      C1810   1.475       .  S
C1597      C1598   1.405       .  A
C1597      H1601   1.081       .  S
C1598      C1599   1.406       .  A
C1598      C1793   1.514       .  S
C1599      H1602   1.072       .  S
C1603      C1604   1.399       .  A
C1603      C1608   1.405       .  A
C1603      C1770   1.482       .  S
C1604      C1605   1.391       .  A
C1604      H1609   1.083       .  S
C1605      C1606   1.384       .  A
C1605      C1780   1.461       .  S
C1606      C1607   1.394       .  A
C1606      H1610   1.080       .  S
C1607      C1608   1.415       .  A
C1607      C1760   1.500       .  S
C1608      H1611   1.079       .  S
C1612      C1613   1.397       .  A
C1612      C1617   1.452       .  A
C1612      C1686   1.522       .  S
C1613      C1614   1.387       .  A
C1613      H1618   1.084       .  S
C1614      C1615   1.380       .  A
C1614      C1820   1.441       .  S
C1615      C1616   1.388       .  A
C1615      H1619   1.086       .  S
C1616      C1617   1.455       .  A
C1616      C1735   1.525       .  S
C1617      H1620   1.082       .  S
C1621      C1622   1.413       .  A
C1621      C1626   1.441       .  A
C1621      C1756   1.515       .  S
C1622      C1623   1.405       .  A
C1622      H1627   1.083       .  S
C1623      C1624   1.398       .  A
C1623      C1790   1.497       .  S
C1624      C1625   1.386       .  A
C1624      H1628   1.076       .  S
C1625      C1626   1.436       .  A
C1625      C1731   1.515       .  S
C1626      H1629   1.082       .  S
C1630      C1631   1.409       .  A
C1630      C1635   1.434       .  A
C1630      C1738   1.496       .  S
C1631      C1632   1.394       .  A
C1631      H1636   1.083       .  S
C1632      C1633   1.394       .  A
C1632      C1763   1.485       .  S
C1633      C1634   1.388       .  A
C1633      H1637   1.083       .  S
C1634      C1635   1.432       .  A
C1634      C1682   1.495       .  S
C1635      H1638   1.082       .  S
C1639      C1640   1.401       .  A
C1639      C1681   1.526       .  S
C1640      H1645   1.084       .  S
C1641      C1642   1.388       .  A
C1641      C1843   1.460       .  S
C1642      C1643   1.377       .  A
C1642      H1646   1.078       .  S
C1643      C1644   1.452       .  A
C1643      C1734   1.540       .  S
C1644      H1647   1.082       .  S
C1648      C1649   1.448       .  A
C1648      C1653   1.401       .  A
C1649      C1650   1.437       .  A
C1649      H1654   1.082       .  S
C1650      C1651   1.382       .  A
C1650      C1667   1.510       .  S
C1651      C1652   1.382       .  A
C1651      H1655   1.086       .  S
C1652      C1653   1.383       .  A
C1657      C1658   1.395   1_565  A
C1657      C1662   1.440       .  A
C1657      C1742   1.497       .  S
C1658      C1659   1.371       .  A
C1659      C1660   1.379   1_545  A
C1660      C1661   1.393       .  A
C1660      H1664   1.085       .  S
C1661      C1662   1.443       .  A
C1661      C1671   1.501       .  S
C1662      H1665   1.082       .  S
O1666      C1681   1.260       .  A
O1666     Al1674   1.911       .  S
C1667      O1677   1.253       .  A
C1667      O1668   1.281       .  A
O1668     Al1670   1.962       .  S
O1669      C1671   1.252       .  A
O1669     Al1670   1.895       .  S
Al1670     O1678   1.918       .  S
Al1670     O1680   2.003       .  S
Al1670     O1679   1.790       .  S
C1671      O1684   1.281       .  A
O1672      C1682   1.251       .  A
O1672     Al1674   1.885       .  S
O1673      C1686   1.261       .  A
O1673     Al1683   1.922       .  S
Al1674     O1687   1.981       .  S
Al1674     O1684   1.964       .  S
Al1674     O1679   1.788       .  S
O1675      C1682   1.281       .  A
O1675     Al1683   1.970       .  S
O1676      C1685   1.288       .  A
O1676     Al1683   1.990       .  S
O1677     Al1683   1.912       .  S
O1678      C1685   1.263       .  A
O1679     Al1683   1.790       .  S
O1680      C1681   1.287       .  A
C1685      C1688   1.525       .  S
C1686      O1687   1.284       .  A
C1688      C1689   1.402       .  A
C1689      C1690   1.386       .  A
C1689      H1694   1.084       .  S
C1690      C1830   1.468       .  S
C1691      C1692   1.382       .  A
C1691      H1695   1.079       .  S
C1692      C1693   1.455   1_655  A
C1692      C1730   1.541       .  S
C1693      H1696   1.082       .  S
C1697      C1698   1.442       .  A
C1697      C1702   1.412       .  A
C1697      C1752   1.522       .  S
C1698      C1699   1.442       .  A
C1698      H1703   1.082       .  S
C1699      C1700   1.388       .  A
C1699      C1716   1.509       .  S
C1700      C1701   1.392       .  A
C1700      H1704   1.079       .  S
C1701      C1702   1.409       .  A
C1706      C1707   1.400   1_655  A
C1706      C1711   1.446       .  A
C1707      C1708   1.391       .  A
C1708      C1709   1.385   1_455  A
C1709      C1710   1.390       .  A
C1709      H1713   1.086       .  S
C1710      C1711   1.446       .  A
C1710      C1720   1.516       .  S
C1711      H1714   1.082       .  S
O1715      C1730   1.258       .  A
O1715     Al1987   1.928   1_554  S
C1716      O1726   1.252       .  A
C1716      O1717   1.285       .  A
O1717     Al1719   1.995       .  S
O1718      C1720   1.251       .  A
O1718     Al1719   1.901       .  S
Al1719     O1991   1.925       .  S
Al1719     O1993   2.002       .  S
Al1719     O1728   1.793       .  S
C1720      O1733   1.285       .  A
O1721      C1731   1.254       .  A
O1721     Al1723   1.907       .  S
O1722      C1735   1.257       .  A
O1722     Al1996   1.905   1_554  S
Al1723     O1979   1.928       .  S
Al1723     O1736   1.988       .  S
Al1723     O1733   1.982       .  S
Al1723     O1728   1.794       .  S
O1724      C1731   1.284       .  A
O1724     Al1732   1.977       .  S
O1725      C1734   1.289   1_556  A
O1725     Al1996   1.979       .  S
O1726     Al1732   1.890       .  S
O1727      C1734   1.258       .  A
O1727     Al1983   1.925   1_554  S
O1728     Al1732   1.785       .  S
O1729      C1730   1.293       .  A
O1729     Al1983   2.002   1_554  S
Al1732     O1986   1.905       .  S
Al1732     O1989   1.979       .  S
C1735      O2000   1.286       .  A
O1736      C1999   1.286       .  A
O1737      C1752   1.265       .  A
O1737     Al1745   1.914       .  S
C1738      O1748   1.258       .  A
C1738      O1739   1.271       .  A
O1739     Al1741   1.939   1_655  S
O1740      C1742   1.260       .  A
Al1741     O1749   1.913   1_455  S
O1743     Al1745   1.897       .  S
Al1745     O1758   1.968       .  S
Al1745     O1755   1.925       .  S
O1746      C1753   1.274   1_655  A
O1747      C1756   1.279       .  A
O1747     Al1754   1.967       .  S
O1748     Al1754   1.902       .  S
O1749      C1756   1.268       .  A
C1757      O1758   1.280       .  A
C1759      C1760   1.404       .  A
C1759      C1764   1.390       .  A
C1759      H1766   1.080       .  S
C1760      C1761   1.420       .  A
C1761      C1762   1.383       .  A
C1761      F1768   1.354       .  S
C1762      C1763   1.398       .  A
C1762      H1767   1.084       .  S
C1763      C1764   1.417       .  A
C1764      F1765   1.357       .  S
C1769      C1770   1.411       .  A
C1769      C1774   1.393       .  A
C1769      H1776   1.082       .  S
C1770      C1771   1.415       .  A
C1771      C1772   1.374       .  A
C1771      F1778   1.354       .  S
C1772      C1773   1.393       .  A
C1772      H1777   1.086       .  S
C1773      C1774   1.396       .  A
C1779      C1780   1.386       .  A
C1779      C1784   1.384       .  A
C1779      H1786   1.078       .  S
C1780      C1781   1.419       .  A
C1781      C1782   1.370       .  A
C1781      F1788   1.342       .  S
C1782      C1783   1.373       .  A
C1782      H1787   1.084       .  S
C1783      C1784   1.417       .  A
C1789      C1790   1.408       .  A
C1789      C1794   1.398       .  A
C1789      H1796   1.082       .  S
C1790      C1791   1.403       .  A
C1791      C1792   1.388       .  A
C1791      F1798   1.359       .  S
C1792      C1793   1.418       .  A
C1792      H1797   1.077       .  S
C1793      C1794   1.418       .  A
C1794      F1795   1.355       .  S
C1799      C1800   1.407       .  A
C1799      C1804   1.388       .  A
C1799      H1806   1.077       .  S
C1800      C1801   1.427       .  A
C1801      C1802   1.389       .  A
C1801      F1808   1.355       .  S
C1802      C1803   1.400       .  A
C1802      H1807   1.081       .  S
C1803      C1804   1.414       .  A
C1809      C1810   1.380       .  A
C1809      C1814   1.379       .  A
C1809      H1816   1.058       .  S
C1810      C1811   1.421       .  A
C1811      C1812   1.386       .  A
C1811      F1818   1.346       .  S
C1812      C1813   1.382       .  A
C1812      H1817   1.084       .  S
C1813      C1814   1.408       .  A
C1814      F1815   1.356       .  S
C1819      C1820   1.378       .  A
C1819      C1824   1.379   1_554  A
C1819      H1826   1.084       .  S
C1820      C2085   1.411   1_554  A
C1821      C2084   1.411       .  A
C1821      C1822   1.376       .  A
C1821      F1828   1.353       .  S
C1822      C2087   1.375       .  A
C1822      H1827   1.064       .  S
C1823      C2086   1.375       .  A
C1823      C1824   1.415       .  A
C1824      F1825   1.337       .  S
C1829      C1830   1.405       .  A
C1829      C1834   1.394   1_554  A
C1829      H1836   1.083       .  S
C1831      C1832   1.383   1_554  A
C1831      F1838   1.360       .  S
C1832      H1837   1.077       .  S
C1833      C1834   1.411       .  A
C1833      C1849   1.501       .  S
C1834      F1835   1.357       .  S
C1839      C1840   1.410       .  A
C1839      C1844   1.382   1_556  A
C1839      H1846   1.069       .  S
C1841      C1842   1.395       .  A
C1841      F1848   1.355       .  S
C1842      H1847   1.077       .  S
C1843      C1844   1.396       .  A
C1844      F1845   1.360       .  S
C1849      C1854   1.407       .  A
C1850      H1855   1.083       .  S
C1851      C1852   1.385       .  A
C1851      C2087   1.465       .  S
C1852      H1856   1.079       .  S
C1853      C2104   1.490       .  S
C1854      H1857   1.077       .  S
C1858      C1859   1.400       .  A
C1858      C1863   1.413       .  A
C1858      C2064   1.513   1_554  S
C1859      C1860   1.395       .  A
C1859      H1864   1.078       .  S
C1860      C1861   1.396       .  A
C1860      C2074   1.475   1_554  S
C1861      C1862   1.405       .  A
C1861      H1865   1.081       .  S
C1862      C1863   1.406       .  A
C1862      C2057   1.514   1_554  S
C1863      H1866   1.072       .  S
C1867      C1868   1.399       .  A
C1867      C1872   1.405       .  A
C1867      C2034   1.482       .  S
C1868      C1869   1.391       .  A
C1868      H1873   1.083       .  S
C1869      C1870   1.384       .  A
C1869      C2044   1.461       .  S
C1870      C1871   1.394       .  A
C1870      H1874   1.080       .  S
C1871      C1872   1.415       .  A
C1871      C2024   1.500       .  S
C1872      H1875   1.079       .  S
C1876      C1877   1.397       .  A
C1876      C1881   1.452       .  A
C1876      C1950   1.522       .  S
C1877      C1878   1.387       .  A
C1877      H1882   1.084       .  S
C1878      C1879   1.380       .  A
C1878      C2084   1.441       .  S
C1879      C1880   1.388       .  A
C1879      H1883   1.086       .  S
C1880      C1881   1.455       .  A
C1880      C1999   1.525       .  S
C1881      H1884   1.082       .  S
C1885      C1886   1.413       .  A
C1885      C1890   1.441       .  A
C1885      C2020   1.515       .  S
C1886      C1887   1.405       .  A
C1886      H1891   1.083       .  S
C1887      C1888   1.398       .  A
C1887      C2054   1.497       .  S
C1888      C1889   1.386       .  A
C1888      H1892   1.076       .  S
C1889      C1890   1.436       .  A
C1889      C1995   1.515       .  S
C1890      H1893   1.082       .  S
C1894      C1895   1.409       .  A
C1894      C1899   1.434       .  A
C1894      C2002   1.496       .  S
C1895      C1896   1.394       .  A
C1895      H1900   1.083       .  S
C1896      C1897   1.394       .  A
C1896      C2027   1.485       .  S
C1897      C1898   1.388       .  A
C1897      H1901   1.083       .  S
C1898      C1899   1.432       .  A
C1898      C1946   1.495       .  S
C1899      H1902   1.082       .  S
C1903      C1904   1.401       .  A
C1903      C1945   1.526       .  S
C1904      H1909   1.084       .  S
C1905      C1906   1.388       .  A
C1905      C2107   1.460       .  S
C1906      C1907   1.377       .  A
C1906      H1910   1.078       .  S
C1907      C1908   1.452       .  A
C1907      C1998   1.540       .  S
C1908      H1911   1.082       .  S
C1912      C1913   1.448       .  A
C1912      C1917   1.401       .  A
C1913      C1914   1.437       .  A
C1913      H1918   1.082       .  S
C1914      C1915   1.382       .  A
C1914      C1931   1.510       .  S
C1915      C1916   1.382       .  A
C1915      H1919   1.086       .  S
C1916      C1917   1.383       .  A
C1921      C1922   1.395   1_565  A
C1921      C1926   1.440       .  A
C1921      C2006   1.497       .  S
C1922      C1923   1.371       .  A
C1923      C1924   1.379   1_545  A
C1924      C1925   1.393       .  A
C1924      H1928   1.085       .  S
C1925      C1926   1.443       .  A
C1925      C1935   1.501       .  S
C1926      H1929   1.082       .  S
O1930      C1945   1.260       .  A
O1930     Al1938   1.911       .  S
C1931      O1941   1.253       .  A
C1931      O1932   1.281       .  A
O1932     Al1934   1.962       .  S
O1933      C1935   1.252       .  A
O1933     Al1934   1.895       .  S
Al1934     O1942   1.918       .  S
Al1934     O1944   2.003       .  S
Al1934     O1943   1.790       .  S
C1935      O1948   1.281       .  A
O1936      C1946   1.251       .  A
O1936     Al1938   1.885       .  S
O1937      C1950   1.261       .  A
O1937     Al1947   1.922       .  S
Al1938     O1951   1.981       .  S
Al1938     O1948   1.964       .  S
Al1938     O1943   1.788       .  S
O1939      C1946   1.281       .  A
O1939     Al1947   1.970       .  S
O1940      C1949   1.288       .  A
O1940     Al1947   1.990       .  S
O1941     Al1947   1.912       .  S
O1942      C1949   1.263       .  A
O1943     Al1947   1.790       .  S
O1944      C1945   1.287       .  A
C1949      C1952   1.525       .  S
C1950      O1951   1.284       .  A
C1952      C1953   1.402       .  A
C1953      C1954   1.386       .  A
C1953      H1958   1.084       .  S
C1954      C2094   1.468       .  S
C1955      C1956   1.382       .  A
C1955      H1959   1.079       .  S
C1956      C1957   1.455   1_655  A
C1956      C1994   1.541       .  S
C1957      H1960   1.082       .  S
C1961      C1962   1.442       .  A
C1961      C1966   1.412       .  A
C1961      C2016   1.522       .  S
C1962      C1963   1.442       .  A
C1962      H1967   1.082       .  S
C1963      C1964   1.388       .  A
C1963      C1980   1.509       .  S
C1964      C1965   1.392       .  A
C1964      H1968   1.079       .  S
C1965      C1966   1.409       .  A
C1970      C1971   1.400   1_655  A
C1970      C1975   1.446       .  A
C1971      C1972   1.391       .  A
C1972      C1973   1.385   1_455  A
C1973      C1974   1.390       .  A
C1973      H1977   1.086       .  S
C1974      C1975   1.446       .  A
C1974      C1984   1.516       .  S
C1975      H1978   1.082       .  S
O1979      C1994   1.258       .  A
C1980      O1990   1.252       .  A
C1980      O1981   1.285       .  A
O1981     Al1983   1.995       .  S
O1982      C1984   1.251       .  A
O1982     Al1983   1.901       .  S
Al1983     O1992   1.793       .  S
C1984      O1997   1.285       .  A
O1985      C1995   1.254       .  A
O1985     Al1987   1.907       .  S
O1986      C1999   1.257       .  A
Al1987     O2000   1.988   1_556  S
Al1987     O1997   1.982       .  S
Al1987     O1992   1.794       .  S
O1988      C1995   1.284       .  A
O1988     Al1996   1.977       .  S
O1989      C1998   1.289       .  A
O1990     Al1996   1.890       .  S
O1991      C1998   1.258       .  A
O1992     Al1996   1.785       .  S
O1993      C1994   1.293       .  A
O2001      C2016   1.265       .  A
O2001     Al2009   1.914       .  S
C2002      O2012   1.258       .  A
C2002      O2003   1.271       .  A
O2003     Al2005   1.939   1_655  S
O2004      C2006   1.260       .  A
Al2005     O2013   1.913   1_455  S
O2007     Al2009   1.897       .  S
Al2009     O2022   1.968       .  S
Al2009     O2019   1.925       .  S
O2010      C2017   1.274   1_655  A
O2011      C2020   1.279       .  A
O2011     Al2018   1.967       .  S
O2012     Al2018   1.902       .  S
O2013      C2020   1.268       .  A
C2021      O2022   1.280       .  A
C2023      C2024   1.404       .  A
C2023      C2028   1.390       .  A
C2023      H2030   1.080       .  S
C2024      C2025   1.420       .  A
C2025      C2026   1.383       .  A
C2025      F2032   1.354       .  S
C2026      C2027   1.398       .  A
C2026      H2031   1.084       .  S
C2027      C2028   1.417       .  A
C2028      F2029   1.357       .  S
C2033      C2034   1.411       .  A
C2033      C2038   1.393       .  A
C2033      H2040   1.082       .  S
C2034      C2035   1.415       .  A
C2035      C2036   1.374       .  A
C2035      F2042   1.354       .  S
C2036      C2037   1.393       .  A
C2036      H2041   1.086       .  S
C2037      C2038   1.396       .  A
C2043      C2044   1.386       .  A
C2043      C2048   1.384       .  A
C2043      H2050   1.078       .  S
C2044      C2045   1.419       .  A
C2045      C2046   1.370       .  A
C2045      F2052   1.342       .  S
C2046      C2047   1.373       .  A
C2046      H2051   1.084       .  S
C2047      C2048   1.417       .  A
C2053      C2054   1.408       .  A
C2053      C2058   1.398       .  A
C2053      H2060   1.082       .  S
C2054      C2055   1.403       .  A
C2055      C2056   1.388       .  A
C2055      F2062   1.359       .  S
C2056      C2057   1.418       .  A
C2056      H2061   1.077       .  S
C2057      C2058   1.418       .  A
C2058      F2059   1.355       .  S
C2063      C2064   1.407       .  A
C2063      C2068   1.388       .  A
C2063      H2070   1.077       .  S
C2064      C2065   1.427       .  A
C2065      C2066   1.389       .  A
C2065      F2072   1.355       .  S
C2066      C2067   1.400       .  A
C2066      H2071   1.081       .  S
C2067      C2068   1.414       .  A
C2073      C2074   1.380       .  A
C2073      C2078   1.379       .  A
C2073      H2080   1.058   1_556  S
C2074      C2075   1.421       .  A
C2075      C2076   1.386       .  A
C2075      F2082   1.346       .  S
C2076      C2077   1.382       .  A
C2076      H2081   1.084       .  S
C2077      C2078   1.408       .  A
C2078      F2079   1.356       .  S
C2083      C2084   1.378       .  A
C2083      C2088   1.379       .  A
C2083      H2090   1.084       .  S
C2085      C2086   1.376       .  A
C2085      F2092   1.353       .  S
C2086      H2091   1.064       .  S
C2087      C2088   1.415       .  A
C2088      F2089   1.337       .  S
C2093      C2094   1.405       .  A
C2093      C2098   1.394       .  A
C2093      H2100   1.083       .  S
C2095      C2096   1.383       .  A
C2095      F2102   1.360       .  S
C2096      H2101   1.077       .  S
C2097      C2098   1.411       .  A
C2098      F2099   1.357       .  S
C2103      C2104   1.410       .  A
C2103      C2108   1.382       .  A
C2103      H2110   1.069       .  S
C2105      C2106   1.395       .  A
C2105      F2112   1.355       .  S
C2106      H2111   1.077       .  S
C2107      C2108   1.396       .  A
C2108      F2109   1.360       .  S
