geometry optimzed in LAMMPS
_audit_creation_date              2020-11-30 
_audit_creation_method            'lammps2cif' 
_symmetry_space_group_name_H-M    'P1' 
_symmetry_Int_Tables_number       1 
_symmetry_cell_setting            triclinic 
loop_ 
_symmetry_equiv_pos_as_xyz 
  x,y,z 
_cell_length_a                    32.72754290942788 
_cell_length_b                    32.5957528832321 
_cell_length_c                    26.479431529862854 
_cell_angle_alpha                 97.2675692916636 
_cell_angle_beta                  101.53799722949853 
_cell_angle_gamma                 117.02717847157703 
loop_ 
_atom_site_label 
_atom_site_type_symbol 
_atom_site_fract_x 
_atom_site_fract_y 
_atom_site_fract_z 
_atom_site_charge 
O1          O  0.41145057  0.16300821  0.86708099    -0.79860
O2          O  0.41645904  0.17882097  0.10988894    -0.64550
O3          O  0.38025276  0.16562836  0.95878606    -1.11150
C4          C  0.48771300  0.33351331  0.01483739     1.07030
O5          O  0.40047177  0.23751461  0.12101453    -0.77760
O6          O  0.39292951  0.28987658  0.05103501    -0.65340
Ni7        Ni  0.38823087  0.12191511  0.91211551     1.34870
C8          C  0.36664163  0.27491139  0.00319706     0.85760
O9          O  0.35784976  0.10291106  0.02669206    -0.78300
O10         O  0.36480537  0.07405516  0.94990733    -0.88570
C11         C  0.40796644  0.20647059  0.13915399     0.85340
O12         O  0.45302518  0.14453944  0.94969021    -0.66770
O13         O  0.48690603  0.33049693  0.06234691    -0.86060
C14         C  0.47402708  0.15543591  0.99889775     0.86170
C15         C  0.35047912  0.06818012  0.99093187     1.07740
H16         H  0.47248424  0.24073302  0.04523863     0.39540
O17         O  0.43992076  0.23488608  0.03783771    -1.08720
O18         O  0.36848389  0.24584822  0.96756392    -0.65370
Ni19       Ni  0.42035928  0.23210656  0.96453613     1.26350
O20         O  0.45416779  0.15941092  0.03483091    -0.65600
O21         O  0.46214741  0.29845995  0.97400803    -0.77890
C22         C  0.40991130  0.19916142  0.85654240     0.85550
O23         O  0.40293107  0.22604189  0.88891235    -0.65070
Ni24       Ni  0.44354741  0.28255793  0.09003266     1.27450
Ni25       Ni  0.39928445  0.16955438  0.03382588     1.26060
H26         H  0.34696172  0.15756718  0.94804915     0.40090
O27         O  0.42226440  0.16924348  0.37677629    -0.79860
O28         O  0.43666038  0.19467480  0.61650881    -0.64550
O29         O  0.38749067  0.16873581  0.46518408    -1.11150
C30         C  0.47695661  0.33567669  0.50341258     1.07030
O31         O  0.40899035  0.24475230  0.62389196    -0.77760
O32         O  0.38189082  0.28129207  0.54914989    -0.65340
Ni33       Ni  0.39269149  0.12464192  0.41677777     1.34870
C34         C  0.35260211  0.25851963  0.50339241     0.85760
O35         O  0.38089296  0.11340835  0.53878776    -0.78300
O36         O  0.36302371  0.07701896  0.45279442    -0.88570
C37         C  0.42327688  0.21865023  0.64414914     0.85340
O38         O  0.45487611  0.13677547  0.45337019    -0.66770
O39         O  0.47508279  0.33678356  0.55119327    -0.86060
C40         C  0.48354133  0.15932759  0.49962597     0.86170
C41         C  0.36099229  0.07631534  0.50031766     1.07740
H42         H  0.47868920  0.25489079  0.54340716     0.39540
O43         O  0.44488754  0.24409543  0.53722667    -1.08720
O44         O  0.36189388  0.23739101  0.46709780    -0.65370
Ni45       Ni  0.41869612  0.23344406  0.46280046     1.26350
O46         O  0.47215434  0.17757436  0.53635791    -0.65600
O47         O  0.45279748  0.29906113  0.46432198    -0.77890
C48         C  0.40692646  0.19501879  0.35739282     0.85550
O49         O  0.39471786  0.21910786  0.38644898    -0.65070
Ni50       Ni  0.44188990  0.28951149  0.58605991     1.27450
Ni51       Ni  0.41377521  0.17951135  0.53990150     1.26060
H52         H  0.35358947  0.15765496  0.45849383     0.40090
O53         O  0.15575760  0.72530275  0.84898410    -0.79860
O54         O  0.19479752  0.75238747  0.10017762    -0.64550
O55         O  0.17903150  0.76380643  0.95736947    -1.11150
C56         C  0.34214000  0.81227642  0.99652658     1.07030
O57         O  0.26589936  0.81797923  0.13528149    -0.77760
O58         O  0.28319080  0.86892106  0.06060380    -0.65340
Ni59       Ni  0.12688644  0.70930338  0.90481874     1.34870
C60         C  0.27754214  0.87508946  0.01393022     0.85760
O61         O  0.12292906  0.74481331  0.02551831    -0.78300
O62         O  0.08826015  0.68738093  0.95166066    -0.88570
C63         C  0.22757388  0.78473298  0.13980390     0.85340
O64         O  0.15627618  0.67202224  0.92187644    -0.66770
O65         O  0.34397865  0.83623825  0.03969606    -0.86060
C66         C  0.16265079  0.66226032  0.96689054     0.86170
C67         C  0.08595851  0.70972186  0.99280646     1.07740
H68         H  0.25293732  0.74304260  0.03373374     0.39540
O69         O  0.24895813  0.77022525  0.03002680    -1.08720
O70         O  0.26595407  0.84215535  0.97333403    -0.65370
Ni71       Ni  0.24156049  0.77415865  0.95795746     1.26350
O72         O  0.16597917  0.68886356  0.00935381    -0.65600
O73         O  0.30320196  0.78265169  0.96123102    -0.77890
C74         C  0.19643249  0.75417214  0.84521900     0.85550
O75         O  0.23326312  0.77717619  0.88538202    -0.65070
Ni76       Ni  0.30084026  0.82449668  0.08329259     1.27450
Ni77       Ni  0.18591494  0.75687376  0.02854565     1.26060
H78         H  0.17621585  0.79179267  0.95474913     0.40090
O79         O  0.15459800  0.75403790  0.34816194    -0.79860
O80         O  0.17689164  0.76036529  0.59488263    -0.64550
O81         O  0.17479350  0.78671201  0.45782737    -1.11150
C82         C  0.33245326  0.81561619  0.50234504     1.07030
O83         O  0.24977513  0.82056075  0.63502189    -0.77760
O84         O  0.27972855  0.87618348  0.56920997    -0.65340
Ni85       Ni  0.11991866  0.74127243  0.39969549     1.34870
C86         C  0.27811805  0.88642081  0.52460440     0.85760
O87         O  0.11557219  0.77150523  0.52298340    -0.78300
O88         O  0.07577763  0.72413948  0.44172641    -0.88570
C89         C  0.21085116  0.78672863  0.63694476     0.85340
O90         O  0.13485994  0.69267343  0.41135727    -0.66770
O91         O  0.33298816  0.83487437  0.54753116    -0.86060
C92         C  0.13907271  0.67979083  0.45448954     0.86170
C93         C  0.07686880  0.74479536  0.48637114     1.07740
H94         H  0.23322692  0.74725187  0.52942892     0.39540
O95         O  0.23474156  0.77748164  0.52878102    -1.08720
O96         O  0.26674458  0.85620621  0.48163145    -0.65370
Ni97       Ni  0.23442309  0.78788302  0.45953240     1.26350
O98         O  0.14390661  0.70464283  0.49887083    -0.65600
O99         O  0.29398449  0.78952313  0.46460210    -0.77890
C100        C  0.19765926  0.77754933  0.34738899     0.85550
O101        O  0.23282300  0.79640900  0.38930221    -0.65070
Ni102      Ni  0.28755217  0.82516471  0.58703837     1.27450
Ni103      Ni  0.17462558  0.77328239  0.52623051     1.26060
H104        H  0.17799660  0.81783728  0.45927287     0.40090
O105        O  0.80609843  0.58574689  0.14479466    -0.79860
O106        O  0.78859673  0.55548807  0.90358809    -0.64550
O107        O  0.80195154  0.61033856  0.04703457    -1.11150
C108        C  0.63426272  0.50564555  0.98973912     1.07030
O109        O  0.73365587  0.57590618  0.87753510    -0.77760
O110        O  0.69267973  0.60366151  0.93931941    -0.65340
Ni111      Ni  0.85014903  0.61599044  0.10596161     1.34870
C112        C  0.70757324  0.63073712  0.98524171     0.85760
O113        O  0.86408398  0.61722288  0.98491729    -0.78300
O114        O  0.89910898  0.64679780  0.07313427    -0.88570
C115        C  0.76362004  0.56401805  0.86742478     0.85340
O116        O  0.84563402  0.55607322  0.08236702    -0.66770
O117        O  0.63664021  0.51150755  0.94341847    -0.86060
C118        C  0.82283204  0.52373478  0.03936622     0.86170
C119        C  0.90064781  0.64122217  0.02530650     1.07740
H120        H  0.72309600  0.51308666  0.96799265     0.39540
O121        O  0.73152148  0.54598433  0.97100220    -1.08720
O122        O  0.72344775  0.62142567  0.02757591    -0.65370
Ni123      Ni  0.73581332  0.57089990  0.04188891     1.26350
O124        O  0.80346555  0.52948520  0.99609035    -0.65600
O125        O  0.66934725  0.52880957  0.03223839    -0.77890
C126        C  0.77229067  0.59210956  0.15287431     0.85550
O127        O  0.74341896  0.59488204  0.11527379    -0.65070
Ni128      Ni  0.68667664  0.54422860  0.91254422     1.27450
Ni129      Ni  0.79738031  0.58200446  0.97675372     1.26060
H130        H  0.80804851  0.64233014  0.04756885     0.40090
O131        O  0.64560223  0.52781832  0.47563265    -0.79860
O132        O  0.85595905  0.66640962  0.49414183    -0.64550
O133        O  0.73771019  0.55318781  0.46986683    -1.11150
C134        C  0.78836672  0.58161256  0.65890122     1.07030
O135        O  0.89081444  0.63525693  0.54459121    -0.77760
O136        O  0.84720496  0.55640679  0.57821650    -0.65340
Ni137      Ni  0.67923874  0.54194544  0.42304224     1.34870
C138        C  0.80861953  0.51701631  0.55919578     0.85760
O139        O  0.78655075  0.60625038  0.40465244    -0.78300
O140        O  0.70790690  0.55529865  0.36645668    -0.88570
C141        C  0.89332254  0.66601817  0.51846066     0.85340
O142        O  0.68931308  0.60439266  0.44078725    -0.66770
O143        O  0.83089561  0.60515451  0.65548373    -0.86060
C144        C  0.72502413  0.64470328  0.46540768     0.86170
C145        C  0.74980554  0.58263184  0.36371371     1.07740
H146        H  0.79832197  0.63981760  0.56977559     0.39540
O147        O  0.80151115  0.61341876  0.55401138    -1.08720
O148        O  0.76791299  0.51403161  0.54343891    -0.65370
Ni149      Ni  0.74316733  0.55728894  0.54400705     1.26350
O150        O  0.76751902  0.65204750  0.48325656    -0.65600
O151        O  0.75102357  0.56295437  0.61876271    -0.77890
C152        C  0.64509138  0.49791092  0.50194071     0.85550
O153        O  0.68342987  0.50205067  0.53001329    -0.65070
Ni154      Ni  0.85877272  0.61997208  0.59814989     1.27450
Ni155      Ni  0.79525136  0.61077976  0.47980511     1.26060
H156        H  0.74281780  0.52760610  0.45588605     0.40090
O157        O  0.64941163  0.91195471  0.99872209    -0.79860
O158        O  0.50985352  0.69919023  0.99722466    -0.64550
O159        O  0.61544557  0.81718847  0.00135717    -1.11150
C160        C  0.56970446  0.76892994  0.81712393     1.07030
O161        O  0.48038481  0.66153730  0.91098336    -0.77760
O162        O  0.57631270  0.70077943  0.91936147    -0.65340
Ni163      Ni  0.62380391  0.87265554  0.04587768     1.34870
C164        C  0.61956004  0.73441835  0.93211252     0.85760
O165        O  0.58558470  0.76537140  0.07330046    -0.78300
O166        O  0.60192401  0.84020122  0.10007041    -0.88570
C167        C  0.47921275  0.66410615  0.95886798     0.85340
O168        O  0.56092304  0.86062601  0.01102743    -0.66770
O169        O  0.55945456  0.72925677  0.82801840    -0.86060
C170        C  0.52240517  0.82284259  0.00648436     0.86170
C171        C  0.59314857  0.79985515  0.10932539     1.07740
H172        H  0.51371981  0.76301160  0.91720340     0.39540
O173        O  0.53995442  0.75639545  0.92448098    -1.08720
O174        O  0.63136495  0.77502454  0.92171077    -0.65370
Ni175      Ni  0.59777007  0.81115694  0.92678492     1.26350
O176        O  0.52218096  0.78484172  0.01313692    -0.65600
O177        O  0.57935149  0.80482595  0.85201518    -0.77890
C178        C  0.66484377  0.90751725  0.95887167     0.85550
O179        O  0.65483812  0.86751130  0.93160825    -0.65070
Ni180      Ni  0.52277873  0.69947336  0.87443974     1.27450
Ni181      Ni  0.56214930  0.75886863  0.99921473     1.26060
H182        H  0.64449833  0.81553860  0.01276391     0.40090
O183        O  0.63623148  0.90699701  0.49978140    -0.79860
O184        O  0.48264942  0.69369781  0.48151049    -0.64550
O185        O  0.59942993  0.80911965  0.49889305    -1.11150
C186        C  0.56756471  0.76818464  0.31543685     1.07030
O187        O  0.47721852  0.65118749  0.40514813    -0.77760
O188        O  0.57430538  0.69896989  0.41700552    -0.65340
Ni189      Ni  0.61306239  0.86634593  0.54643258     1.34870
C190        C  0.61674432  0.73388070  0.42906897     0.85760
O191        O  0.55464106  0.75510554  0.56565903    -0.78300
O192        O  0.59461127  0.83385567  0.60079036    -0.88570
C193        C  0.46268000  0.65498828  0.44583892     0.85340
O194        O  0.55128672  0.86036535  0.52047530    -0.66770
O195        O  0.55590247  0.72748843  0.32475647    -0.86060
C196        C  0.51005706  0.82354169  0.50399216     0.86170
C197        C  0.57445687  0.79114484  0.60514902     1.07740
H198        H  0.50256944  0.75506710  0.40368038     0.39540
O199        O  0.52921696  0.74993879  0.41637958    -1.08720
O200        O  0.62577915  0.77479728  0.42164288    -0.65370
Ni201      Ni  0.58807178  0.80684312  0.42472219     1.26350
O202        O  0.50342383  0.78152964  0.49587506    -0.65600
O203        O  0.57442033  0.80268082  0.35056577    -0.77890
C204        C  0.65572094  0.90503892  0.46316725     0.85550
O205        O  0.64598672  0.86557950  0.43450964    -0.65070
Ni206      Ni  0.51914431  0.69389034  0.37009298     1.27450
Ni207      Ni  0.54119282  0.75157441  0.49104035     1.26060
H208        H  0.62600198  0.80378050  0.51142878     0.40090
O209        O  0.82321226  0.33110213  0.01470704    -0.79860
O210        O  0.76659151  0.12868001  0.93759782    -0.64550
O211        O  0.75572329  0.23994969  0.96754221    -1.11150
C212        C  0.76432721  0.20775837  0.13734341     1.07030
O213        O  0.70208657  0.09778017  0.96458074    -0.77760
O214        O  0.66779598  0.14018064  0.02605387    -0.65340
Ni215      Ni  0.78991045  0.29368977  0.94350997     1.34870
C216        C  0.66348554  0.17702750  0.02736723     0.85760
O217        O  0.76010356  0.18849927  0.87739920    -0.78300
O218        O  0.75864706  0.25646556  0.87163984    -0.88570
C219        C  0.73183033  0.09256658  0.94395184     0.85340
O220        O  0.84417220  0.28737892  0.94142481    -0.66770
O221        O  0.74361985  0.16433096  0.11101193    -0.86060
C222        C  0.85942330  0.26009312  0.95591130     0.86170
C223        C  0.75644906  0.21762386  0.85100886     1.07740
H224        H  0.79935765  0.19300815  0.04184721     0.39540
O225        O  0.76790475  0.18744664  0.02367165    -1.08720
O226        O  0.69869723  0.21788556  0.03279199    -0.65370
Ni227      Ni  0.76655097  0.24467089  0.04255175     1.26350
O228        O  0.83360777  0.22226943  0.96893638    -0.65600
O229        O  0.77585138  0.24344742  0.11632231    -0.77890
C230        C  0.79968561  0.33945407  0.04282944     0.85550
O231        O  0.76959745  0.30570530  0.05779780    -0.65070
Ni232      Ni  0.72293451  0.13178118  0.03765550     1.27450
Ni233      Ni  0.76380490  0.18649630  0.95057816     1.26060
H234        H  0.72224076  0.22949890  0.95167842     0.40090
O235        O  0.84559791  0.33643520  0.53621132    -0.79860
O236        O  0.77877354  0.12855642  0.43898730    -0.64550
O237        O  0.78051738  0.24755778  0.47458278    -1.11150
C238        C  0.76124055  0.20085536  0.63532846     1.07030
O239        O  0.71207117  0.10299332  0.46050883    -0.77760
O240        O  0.67684436  0.14272738  0.52191877    -0.65340
Ni241      Ni  0.82573686  0.30464462  0.46302132     1.34870
C242        C  0.67327425  0.17963127  0.51981073     0.85760
O243        O  0.78429493  0.19695012  0.38379603    -0.78300
O244        O  0.80666284  0.27453148  0.38953881    -0.88570
C245        C  0.74168825  0.09405287  0.44446899     0.85340
O246        O  0.88004204  0.29558283  0.47399098    -0.66770
O247        O  0.74639095  0.15869546  0.60868111    -0.86060
C248        C  0.88693992  0.26084029  0.47867167     0.86170
C249        C  0.79247559  0.23252599  0.36311086     1.07740
H250        H  0.80972772  0.19179650  0.54758597     0.39540
O251        O  0.77967243  0.18761491  0.52665943    -1.08720
O252        O  0.70941338  0.21969197  0.52421323    -0.65370
Ni253      Ni  0.77836662  0.24500283  0.54626218     1.26350
O254        O  0.85322039  0.21960366  0.47726390    -0.65600
O255        O  0.77476776  0.23777269  0.61656383    -0.77890
C256        C  0.81498518  0.34173215  0.55462464     0.85550
O257        O  0.78159891  0.30567456  0.56278401    -0.65070
Ni258      Ni  0.72977921  0.13108583  0.53446400     1.27450
Ni259      Ni  0.78283878  0.19057434  0.45511252     1.26060
H260        H  0.74954568  0.24160924  0.45411033     0.40090
O261        O  0.22665621  0.41809146  0.10392113    -0.79860
O262        O  0.21961947  0.41428714  0.86960098    -0.64550
O263        O  0.22158774  0.45116132  0.01225361    -1.11150
C264        C  0.05730568  0.35340834  0.95717341     1.07030
O265        O  0.14429135  0.39444649  0.82839066    -0.77760
O266        O  0.13918802  0.45396370  0.90583083    -0.65340
Ni267      Ni  0.27124078  0.45969292  0.07075034     1.34870
C268        C  0.14389390  0.47511887  0.95216379     0.85760
O269        O  0.28541061  0.48095658  0.95362061    -0.78300
O270        O  0.31875823  0.50376018  0.04255031    -0.88570
C271        C  0.18634323  0.40383038  0.82796279     0.85340
O272        O  0.28143573  0.40950169  0.04158044    -0.66770
O273        O  0.06514809  0.37651010  0.92172486    -0.86060
C274        C  0.26888424  0.38365849  0.99507369     0.86170
C275        C  0.31962734  0.50838947  0.99542670     1.07740
H276        H  0.15214725  0.35279123  0.92653919     0.39540
O277        O  0.15613949  0.38439881  0.93261933    -1.09080
O278        O  0.13993705  0.45416871  0.99023404    -0.65370
Ni279      Ni  0.15722340  0.40538992  0.00418073     1.26350
O280        O  0.24281186  0.38652482  0.95451803    -0.65600
O281        O  0.09192118  0.35764804  0.99330991    -0.77890
C282        C  0.19137362  0.42168641  0.11296074     0.85550
O283        O  0.16265599  0.42616033  0.07711037    -0.65070
Ni284      Ni  0.10881774  0.38676059  0.87944799     1.27450
Ni285      Ni  0.22135857  0.43184031  0.94178900     1.26060
H286        H  0.22429224  0.48222489  0.01605745     0.40090
O287        O  0.12492522  0.47888482  0.48274692    -0.79860
O288        O  0.19380449  0.33107568  0.50109407    -0.64550
O289        O  0.19132798  0.44829511  0.50947230    -1.11150
C290        C  0.18790953  0.41446446  0.32722209     1.07030
O291        O  0.25646791  0.37106071  0.47434381    -0.77760
O292        O  0.28463184  0.44490003  0.42930158    -0.65340
Ni293      Ni  0.15252618  0.46328819  0.54381383     1.34870
C294        C  0.28801994  0.48516496  0.44381878     0.85760
O295        O  0.19430165  0.39178785  0.58173175    -0.78300
O296        O  0.17842789  0.45023945  0.60771397    -0.88570
C297        C  0.22999181  0.33396935  0.48723454     0.85340
O298        O  0.09729428  0.40125323  0.52438630    -0.66770
O299        O  0.20832202  0.39093202  0.34237757    -0.86060
C300        C  0.08780320  0.35946461  0.50332729     0.86170
C301        C  0.19051537  0.41919542  0.61723182     1.07740
H302        H  0.15404056  0.36214618  0.41233577     0.39540
O303        O  0.18496699  0.38799932  0.43402626    -1.08720
O304        O  0.25217571  0.48884992  0.45015017    -0.65370
Ni305      Ni  0.18378829  0.44541311  0.43471742     1.26350
O306        O  0.11906803  0.35016868  0.49039819    -0.65600
O307        O  0.17680349  0.43849272  0.35880766    -0.77890
C308        C  0.14944550  0.50812150  0.45866610     0.85550
O309        O  0.17902376  0.50166568  0.43905593    -0.65070
Ni310      Ni  0.23207574  0.38109844  0.40870995     1.27450
Ni311      Ni  0.18923818  0.38857804  0.50746246     1.26060
H312        H  0.22388729  0.47238620  0.52879474     0.40090
C313        C  0.22465188  0.45010122  0.76726253     0.24630
C314        C  0.19684612  0.40565823  0.77661575    -0.23480
C315        C  0.17219302  0.36488886  0.73405116     0.19530
C316        C  0.17353069  0.36879545  0.68224601     0.24570
C317        C  0.19827548  0.41378614  0.67228376    -0.23430
C318        C  0.22489185  0.45423587  0.71536963     0.19470
F319        F  0.24932519  0.49802872  0.70685605    -0.13380
F320        F  0.24813746  0.49003614  0.80779648    -0.15750
F321        F  0.14720395  0.32919859  0.64134428    -0.15750
F322        F  0.14479982  0.32171333  0.74236076    -0.13380
C323        C  0.18223060  0.45341641  0.25139285     0.24630
C324        C  0.17866300  0.41356512  0.26976741    -0.23480
C325        C  0.17311330  0.37434301  0.23354063     0.19530
C326        C  0.17573844  0.37669946  0.18202835     0.24570
C327        C  0.18237729  0.41752450  0.16484321    -0.23430
C328        C  0.18372539  0.45518509  0.19897976     0.19470
F329        F  0.18988431  0.49495265  0.18277713    -0.13380
F330        F  0.18777306  0.49187440  0.28500180    -0.15750
F331        F  0.17287760  0.33935572  0.14912765    -0.15750
F332        F  0.16697236  0.33409420  0.24862257    -0.13380
C333        C  0.97076931  0.28764443  0.53421034     0.24630
C334        C  0.93707418  0.27072608  0.48379040    -0.23480
C335        C  0.95429595  0.27649762  0.43887369     0.19530
C336        C  0.00391531  0.30113649  0.44449628     0.24570
C337        C  0.03751230  0.32106346  0.49524181    -0.23430
C338        C  0.02035230  0.31260744  0.53987784     0.19470
F339        F  0.05170538  0.33176832  0.58956545    -0.13380
F340        F  0.95566800  0.28391235  0.57842355    -0.15750
F341        F  0.01889326  0.30961076  0.40076354    -0.15750
F342        F  0.92284327  0.26196944  0.38970098    -0.13380
C343        C  0.94470772  0.27901075  0.99777640     0.24630
C344        C  0.90882893  0.27418700  0.95424977    -0.23480
C345        C  0.92188815  0.29128061  0.91061489     0.19530
C346        C  0.96959195  0.31516695  0.91134227     0.24570
C347        C  0.00642347  0.32342986  0.95623367    -0.23430
C348        C  0.99334006  0.30355731  0.99884736     0.19470
F349        F  0.02743312  0.30952106  0.04235604    -0.13380
F350        F  0.93308874  0.26294475  0.04052952    -0.15750
F351        F  0.97935562  0.33137315  0.86798408    -0.15750
F352        F  0.88821759  0.28700583  0.86765970    -0.13380
C353        C  0.72217785  0.21526966  0.75718218     0.24630
C354        C  0.75402649  0.20849698  0.79463498    -0.23480
C355        C  0.78839687  0.19929020  0.77932371     0.19530
C356        C  0.79177660  0.19829960  0.72756001     0.24570
C357        C  0.76063465  0.20609010  0.69059792    -0.23430
C358        C  0.72521755  0.21365726  0.70519083     0.19470
F359        F  0.69298773  0.21834137  0.66872210    -0.13380
F360        F  0.68795917  0.22293930  0.77093003    -0.15750
F361        F  0.82592570  0.19059228  0.71365040    -0.15750
F362        F  0.82009518  0.19342405  0.81512817    -0.13380
C363        C  0.78524185  0.18553522  0.22166224     0.24630
C364        C  0.77441583  0.21599911  0.19546538    -0.23480
C365        C  0.76979713  0.25179342  0.22468448     0.19530
C366        C  0.77500309  0.25658125  0.27897055     0.24570
C367        C  0.78543963  0.22586952  0.30527357    -0.23430
C368        C  0.79070003  0.19042820  0.27608116     0.19470
F369        F  0.80212283  0.16114783  0.30027753    -0.13380
F370        F  0.79112835  0.15126039  0.19466115    -0.15750
F371        F  0.76839780  0.29056059  0.30539632    -0.15750
F372        F  0.75814448  0.28087169  0.20032183    -0.13380
C373        C  0.41449225  0.56661674  0.43582501     0.24630
C374        C  0.42024766  0.61230763  0.45095421    -0.23480
C375        C  0.38385838  0.61631840  0.46821327     0.19530
C376        C  0.34176996  0.57550792  0.46779022     0.24570
C377        C  0.33512057  0.52936746  0.45082162    -0.23430
C378        C  0.37299361  0.52591644  0.43620139     0.19470
F379        F  0.36964854  0.48292398  0.42055650    -0.13380
F380        F  0.44930955  0.56121072  0.42049018    -0.15750
F381        F  0.30708580  0.58140082  0.48280293    -0.15750
F382        F  0.38785017  0.65973280  0.48295480    -0.13380
C383        C  0.68160766  0.96077862  0.40335113     0.24630
C384        C  0.68902003  0.95109829  0.45372345    -0.23480
C385        C  0.72331841  0.98869973  0.49759491     0.19530
C386        C  0.74644691  0.03544323  0.49225122     0.24570
C387        C  0.73533122  0.04590761  0.44311806    -0.23430
C388        C  0.70406368  0.00796052  0.39824210     0.19470
F389        F  0.69160688  0.01703061  0.35061557    -0.13380
F390        F  0.64878721  0.92542587  0.36023326    -0.15750
F391        F  0.77557931  0.07131608  0.53656004    -0.15750
F392        F  0.73182857  0.98061457  0.54667543    -0.13380
C393        C  0.40836557  0.56513091  0.01941196     0.24630
C394        C  0.36131580  0.54875764  0.98789355    -0.23480
C395        C  0.35367472  0.57147736  0.94805864     0.19530
C396        C  0.39223768  0.60890418  0.93892159     0.24570
C397        C  0.43918969  0.62486613  0.96977128    -0.23430
C398        C  0.44713568  0.60316598  0.01049280     0.19470
F399        F  0.49244151  0.61775076  0.04029588    -0.13380
F400        F  0.41687570  0.54344056  0.05752945    -0.15750
F401        F  0.38360565  0.63051013  0.90072995    -0.15750
F402        F  0.30858531  0.55826909  0.91873101    -0.13380
C403        C  0.66669569  0.96094092  0.89996460     0.24630
C404        C  0.69143943  0.95083736  0.94187324    -0.23480
C405        C  0.73633783  0.98695861  0.97514791     0.19530
C406        C  0.75403179  0.03372488  0.96993912     0.24570
C407        C  0.72627622  0.04479699  0.93234217    -0.23430
C408        C  0.68379480  0.00783441  0.89559771     0.19470
F409        F  0.65610470  0.01795768  0.85960792    -0.13380
F410        F  0.62294067  0.92655284  0.86777834    -0.15750
F411        F  0.79483947  0.06902791  0.00631407    -0.15750
F412        F  0.76060983  0.97776658  0.01595511    -0.13380
C413        C  0.53189226  0.74248535  0.71881055     0.24630
C414        C  0.57163251  0.77349629  0.76289032    -0.23480
C415        C  0.61276582  0.80921698  0.75478299     0.19530
C416        C  0.61403773  0.81417989  0.70330474     0.24570
C417        C  0.57397759  0.78370910  0.65907111    -0.23430
C418        C  0.53295606  0.74761554  0.66728212     0.19470
F419        F  0.49315487  0.71870255  0.62573008    -0.13380
F420        F  0.49128805  0.70850619  0.72594554    -0.15750
F421        F  0.65475713  0.84834795  0.69658792    -0.15750
F422        F  0.65204729  0.83869842  0.79668522    -0.13380
C423        C  0.57959667  0.81800199  0.24862356     0.24630
C424        C  0.57494126  0.77619615  0.26291032    -0.23480
C425        C  0.57721567  0.74242984  0.22630633     0.19530
C426        C  0.58387244  0.75028386  0.17696146     0.24570
C427        C  0.58876300  0.79229890  0.16289188    -0.23430
C428        C  0.58676652  0.82610284  0.19973082     0.19470
F429        F  0.59034975  0.86681754  0.18818059    -0.13380
F430        F  0.57574052  0.85085895  0.28123568    -0.15750
F431        F  0.58540681  0.71644286  0.14303672    -0.15750
F432        F  0.57304048  0.70158136  0.23800711    -0.13380
C433        C  0.77340172  0.43300206  0.56747314     0.24630
C434        C  0.81059755  0.47239390  0.55778742    -0.23480
C435        C  0.85052930  0.46945155  0.55014492     0.19530
C436        C  0.85278308  0.42766182  0.55097799     0.24570
C437        C  0.81523175  0.38785196  0.55999193    -0.23430
C438        C  0.77577357  0.39137761  0.56883715     0.19470
F439        F  0.73878642  0.35427463  0.57784927    -0.13380
F440        F  0.73498909  0.43505088  0.57691045    -0.15750
F441        F  0.89161383  0.42618297  0.54213708    -0.15750
F442        F  0.88694959  0.50665539  0.54046824    -0.13380
C443        C  0.72144816  0.71283566  0.43695100     0.24630
C444        C  0.71417148  0.68356470  0.47267781    -0.23480
C445        C  0.68187379  0.67996419  0.50192691     0.19530
C446        C  0.65293649  0.70045564  0.49092722     0.24570
C447        C  0.65625895  0.72518884  0.45084915    -0.23430
C448        C  0.69272744  0.73395506  0.42630421     0.19470
F449        F  0.69662164  0.75794232  0.38758580    -0.13380
F450        F  0.75182798  0.71589972  0.40755474    -0.15750
F451        F  0.61879922  0.69272650  0.51620565    -0.15750
F452        F  0.67421001  0.65159466  0.53640259    -0.13380
C453        C  0.76461683  0.39253622  0.03343863     0.24630
C454        C  0.80482674  0.38715373  0.05154475    -0.23480
C455        C  0.85099254  0.42708299  0.06596664     0.19530
C456        C  0.85694097  0.47160870  0.06169456     0.24570
C457        C  0.81689922  0.47656538  0.04130551    -0.23430
C458        C  0.77064302  0.43692992  0.02790374     0.19470
F459        F  0.73133103  0.44135673  0.00991430    -0.13380
F460        F  0.71977149  0.35425579  0.01777726    -0.15750
F461        F  0.90186969  0.50959631  0.07564669    -0.15750
F462        F  0.89041334  0.42250526  0.08255447    -0.13380
C463        C  0.67308632  0.67851909  0.01717400     0.24630
C464        C  0.70232532  0.67313713  0.98794935    -0.23480
C465        C  0.71394109  0.69929344  0.94953633     0.19530
C466        C  0.69111353  0.72514866  0.93529351     0.24570
C467        C  0.65626105  0.72430115  0.95899286    -0.23430
C468        C  0.64968599  0.70362573  0.00231280     0.19470
F469        F  0.61662661  0.70335746  0.02633611    -0.13380
F470        F  0.66153172  0.65370369  0.05444988    -0.15750
F471        F  0.69825667  0.74544892  0.89383068    -0.15750
F472        F  0.74307289  0.69519909  0.92164257    -0.13380
C473        C  0.73682754  0.55908282  0.72052726     0.24630
C474        C  0.78216377  0.57505171  0.71212096    -0.23480
C475        C  0.82106731  0.58346143  0.75487055     0.19530
C476        C  0.81496124  0.57768429  0.80499912     0.24570
C477        C  0.76999396  0.56355887  0.81350323    -0.23430
C478        C  0.73089307  0.55341141  0.77037249     0.19470
F479        F  0.68648649  0.53829678  0.77652646    -0.13380
F480        F  0.69803610  0.54991790  0.68091349    -0.15750
F481        F  0.85347692  0.58791776  0.84565746    -0.15750
F482        F  0.86520540  0.59738008  0.74845255    -0.13380
C483        C  0.80087073  0.60381844  0.30151420     0.24630
C484        C  0.75554214  0.58707351  0.30992601    -0.23480
C485        C  0.71565580  0.57455168  0.26618307     0.19530
C486        C  0.72100813  0.57769815  0.21533848     0.24570
C487        C  0.76621770  0.59329567  0.20699579    -0.23430
C488        C  0.80617276  0.60714330  0.25094444     0.19470
F489        F  0.85081545  0.62379016  0.24505797    -0.13380
F490        F  0.84015910  0.61551798  0.34181435    -0.15750
F491        F  0.68163646  0.56383557  0.17405618    -0.15750
F492        F  0.67123012  0.55910136  0.27232577    -0.13380
C493        C  0.42447296  0.79406149  0.45642523     0.24630
C494        C  0.46693815  0.82850708  0.49570300    -0.23480
C495        C  0.46582127  0.86338918  0.53132130     0.19530
C496        C  0.42218875  0.86109449  0.53103788     0.24570
C497        C  0.37889180  0.82368902  0.49513682    -0.23430
C498        C  0.38079784  0.79171831  0.45600496     0.19470
F499        F  0.34021173  0.75612978  0.41959245    -0.13380
F500        F  0.42490906  0.76116117  0.41986202    -0.15750
F501        F  0.42228439  0.89433964  0.56768138    -0.15750
F502        F  0.50627208  0.89733478  0.56935113    -0.13380
C503        C  0.10485454  0.59748788  0.46789624     0.24630
C504        C  0.13955336  0.63488486  0.45321488    -0.23480
C505        C  0.17597936  0.62984462  0.43808361     0.19530
C506        C  0.17850867  0.58830303  0.43865787     0.24570
C507        C  0.14410045  0.55050896  0.45389246    -0.23430
C508        C  0.10679455  0.55541398  0.46784964     0.19470
F509        F  0.07227346  0.51972725  0.48170031    -0.13380
F510        F  0.06884450  0.60157391  0.48172558    -0.15750
F511        F  0.21583961  0.58608109  0.42613737    -0.15750
F512        F  0.21044549  0.66616907  0.42486375    -0.13380
C513        C  0.99096951  0.72384770  0.45523781     0.24630
C514        C  0.03122023  0.73436485  0.49692614    -0.23480
C515        C  0.02642885  0.73099824  0.54796511     0.19530
C516        C  0.98132591  0.71254281  0.55583042     0.24570
C517        C  0.94045093  0.69767271  0.51300451    -0.23430
C518        C  0.94578932  0.70606699  0.46344272     0.19470
F519        F  0.90702312  0.69352544  0.42198153    -0.13380
F520        F  0.99509520  0.72905932  0.40611254    -0.15750
F521        F  0.97715947  0.70640360  0.60472219    -0.15750
F522        F  0.06465008  0.74172896  0.58930542    -0.13380
C523        C  0.38915174  0.77591460  0.97123730     0.24630
C524        C  0.38714467  0.81714652  0.98902747    -0.23480
C525        C  0.42942413  0.86146498  0.00608989     0.19530
C526        C  0.47369109  0.86409900  0.00870814     0.24570
C527        C  0.47608143  0.82222341  0.99521409    -0.23430
C528        C  0.43312659  0.77834894  0.97438355     0.19470
F529        F  0.43355690  0.73723209  0.95890417    -0.13380
F530        F  0.34886414  0.73255579  0.95497633    -0.15750
F531        F  0.51417274  0.90716599  0.02745869    -0.15750
F532        F  0.42793890  0.90194661  0.02178621    -0.13380
C533        C  0.17702760  0.55434940  0.92968964     0.24630
C534        C  0.15313686  0.52504998  0.96093778    -0.23480
C535        C  0.13681525  0.54350110  0.99845250     0.19530
C536        C  0.14179871  0.58907686  0.00229703     0.24570
C537        C  0.16321318  0.61708241  0.96872904    -0.23430
C538        C  0.18185621  0.59962649  0.93344306     0.19470
F539        F  0.20468595  0.62642363  0.90216081    -0.13380
F540        F  0.19579261  0.53914997  0.89516327    -0.15750
F541        F  0.12311885  0.60457801  0.03665310    -0.15750
F542        F  0.11377247  0.51656691  0.02947836    -0.13380
C543        C  0.98440018  0.70672174  0.04278270     0.24630
C544        C  0.94761309  0.66036887  0.01628853    -0.23480
C545        C  0.95674331  0.63006529  0.98377480     0.19530
C546        C  0.00208068  0.64585045  0.97740319     0.24570
C547        C  0.03906387  0.69268560  0.00283558    -0.23430
C548        C  0.02990195  0.72302296  0.03579250     0.19470
F549        F  0.06447174  0.76861982  0.06023909    -0.13380
F550        F  0.97595166  0.73634295  0.07448052    -0.15750
F551        F  0.00986149  0.61472229  0.94717548    -0.15750
F552        F  0.92215268  0.58429176  0.95991294    -0.13380
C553        C  0.24217257  0.79875035  0.78622363     0.24630
C554        C  0.20021330  0.76178095  0.79169326    -0.23480
C555        C  0.16113465  0.73341149  0.74551276     0.19530
C556        C  0.16408751  0.74181039  0.69548300     0.24570
C557        C  0.20605224  0.77891107  0.69013871    -0.23430
C558        C  0.24501879  0.80729815  0.73639496     0.19470
F559        F  0.28660947  0.84347828  0.73390555    -0.13380
F560        F  0.28079201  0.82728487  0.82914650    -0.15750
F561        F  0.12579742  0.71308828  0.65232776    -0.15750
F562        F  0.11981573  0.69704679  0.74828868    -0.13380
C563        C  0.25926603  0.79754554  0.23806120     0.24630
C564        C  0.22060587  0.78448173  0.19313216    -0.23480
C565        C  0.17507552  0.77114469  0.19949202     0.19530
C566        C  0.16804640  0.77026321  0.24969386     0.24570
C567        C  0.20637722  0.78202154  0.29483882    -0.23430
C568        C  0.25223859  0.79608896  0.28839090     0.19470
F569        F  0.29012411  0.80710238  0.33034460    -0.13380
F570        F  0.30359056  0.81002973  0.23295389    -0.15750
F571        F  0.12349451  0.75809214  0.25382863    -0.15750
F572        F  0.13737085  0.75985486  0.15713274    -0.13380
C573        C  0.59717017  0.41220619  0.49130070     0.24630
C574        C  0.59986046  0.45677574  0.49840749    -0.23480
C575        C  0.55960201  0.46103325  0.50195523     0.19530
C576        C  0.51760422  0.42093908  0.50143996     0.24570
C577        C  0.51561405  0.37669691  0.49513130    -0.23430
C578        C  0.55510009  0.37233775  0.48908718     0.19470
F579        F  0.55382011  0.32972255  0.48453380    -0.13380
F580        F  0.63548790  0.40734046  0.48683749    -0.15750
F581        F  0.47957681  0.42526616  0.50817830    -0.15750
F582        F  0.56183603  0.50406879  0.50853679    -0.13380
C583        C  0.58296732  0.13186651  0.48761740     0.24630
C584        C  0.62493331  0.17547263  0.51394758    -0.23480
C585        C  0.61992973  0.21339726  0.53840140     0.19530
C586        C  0.57419519  0.20777966  0.53625001     0.24570
C587        C  0.53237579  0.16431967  0.50907354    -0.23430
C588        C  0.53752730  0.12650821  0.48493196     0.19470
F589        F  0.49821734  0.08387099  0.45854138    -0.13380
F590        F  0.58574208  0.09427722  0.46348258    -0.15750
F591        F  0.57081974  0.24538375  0.55909684    -0.15750
F592        F  0.65933899  0.25568604  0.56548882    -0.13380
C593        C  0.32808420  0.97387762  0.56548989     0.24630
C594        C  0.29293679  0.93585439  0.52235985    -0.23480
C595        C  0.27604150  0.94546816  0.47474679     0.19530
C596        C  0.29647735  0.99175107  0.46885255     0.24570
C597        C  0.33436891  0.02931905  0.51039091    -0.23430
C598        C  0.34868441  0.02035222  0.55951555     0.19470
F599        F  0.38494615  0.05589327  0.60046964    -0.13380
F600        F  0.34518934  0.96584608  0.61210311    -0.15750
F601        F  0.27995732  0.99959201  0.42181151    -0.15750
F602        F  0.24066529  0.90984690  0.43316585    -0.13380
C603        C  0.25638845  0.28321599  0.53110303     0.24630
C604        C  0.24352042  0.29654041  0.48487828    -0.23480
C605        C  0.25719962  0.28524915  0.44017048     0.19530
C606        C  0.28872998  0.26706814  0.44393544     0.24570
C607        C  0.30718808  0.26012626  0.49265145    -0.23430
C608        C  0.28802677  0.26501713  0.53498817     0.19470
F609        F  0.30337799  0.25630199  0.58188968    -0.13380
F610        F  0.24340856  0.29338541  0.57458822    -0.15750
F611        F  0.30577616  0.26219934  0.40214449    -0.15750
F612        F  0.24434355  0.29705827  0.39455646    -0.13380
C613        C  0.43921974  0.18774149  0.77790630     0.24630
C614        C  0.41689958  0.20835935  0.80436559    -0.23480
C615        C  0.39892646  0.23431348  0.77859939     0.19530
C616        C  0.40125726  0.23784524  0.72690814     0.24570
C617        C  0.42187927  0.21554832  0.69960104    -0.23430
C618        C  0.44137182  0.19104645  0.72627351     0.19470
F619        F  0.46262116  0.17006376  0.70255922    -0.13380
F620        F  0.45924718  0.16409621  0.80195756    -0.15750
F621        F  0.38218375  0.26241746  0.70340098    -0.15750
F622        F  0.37746090  0.25488933  0.80251951    -0.13380
C623        C  0.41521286  0.16941537  0.21622974     0.24630
C624        C  0.40604570  0.20262410  0.19444405    -0.23480
C625        C  0.39632771  0.23313376  0.22680131     0.19530
C626        C  0.39622200  0.23066120  0.27933924     0.24570
C627        C  0.40587034  0.19771244  0.30119085    -0.23430
C628        C  0.41511663  0.16696008  0.26858528     0.19470
F629        F  0.42416522  0.13401825  0.28706884    -0.13380
F630        F  0.42477069  0.13921957  0.18715013    -0.15750
F631        F  0.38728801  0.26113712  0.30889211    -0.15750
F632        F  0.38725306  0.26594797  0.20802745    -0.13380
C633        C  0.57767957  0.46450535  0.04087653     0.24630
C634        C  0.58988601  0.46581873  0.99298622    -0.23480
C635        C  0.56406870  0.42486157  0.95033859     0.19530
C636        C  0.52986890  0.38244201  0.95696810     0.24570
C637        C  0.52027316  0.37989801  0.00635725    -0.23430
C638        C  0.54298403  0.42198387  0.04749307     0.19470
F639        F  0.53259054  0.42199480  0.09462900    -0.13380
F640        F  0.60037830  0.50401154  0.08185797    -0.15750
F641        F  0.50838507  0.34332169  0.91555323    -0.15750
F642        F  0.57467579  0.42436926  0.90328126    -0.13380
C643        C  0.55655543  0.19645897  0.99024449     0.24630
C644        C  0.52410374  0.16460752  0.01300170    -0.23480
C645        C  0.53819721  0.13767102  0.04208661     0.19530
C646        C  0.58341025  0.14135478  0.04660061     0.24570
C647        C  0.61552954  0.17266719  0.02282227    -0.23430
C648        C  0.60185709  0.20085372  0.99556755     0.19470
F649        F  0.63164178  0.23139990  0.97209735    -0.13380
F650        F  0.54386336  0.22285587  0.96176371    -0.15750
F651        F  0.59589952  0.11454845  0.07450120    -0.15750
F652        F  0.50740963  0.10621653  0.06387480    -0.13380
C653        C  0.31285435  0.98037090  0.95257120     0.24630
C654        C  0.32538933  0.01820218  0.99591906    -0.23480
C655        C  0.31595781  0.00725010  0.04356366     0.19530
C656        C  0.29776404  0.96027155  0.04879973     0.24570
C657        C  0.28863327  0.92323142  0.00649400    -0.23430
C658        C  0.29499857  0.93391873  0.95783546     0.19470
F659        F  0.28633401  0.89988226  0.91540719    -0.13380
F660        F  0.31907551  0.98802248  0.90471696    -0.15750
F661        F  0.29029826  0.95142793  0.09583705    -0.15750
F662        F  0.32586481  0.04204900  0.08580899    -0.13380
C663        C  0.28782625  0.27577632  0.97533333     0.24630
C664        C  0.33825721  0.29886243  0.98933489    -0.23480
C665        C  0.36402585  0.34875147  0.99948822     0.19530
C666        C  0.34059519  0.37532380  0.99909442     0.24570
C667        C  0.29059960  0.35290578  0.98798549    -0.23430
C668        C  0.26400233  0.30277602  0.97433153     0.19470
F669        F  0.21554298  0.28027242  0.96317489    -0.13380
F670        F  0.26207595  0.22775775  0.96592867    -0.15750
F671        F  0.36710074  0.42353261  0.01131592    -0.15750
F672        F  0.41267780  0.37215110  0.01251900    -0.13380
loop_ 
_geom_bond_atom_site_label_1 
_geom_bond_atom_site_label_2 
_geom_bond_distance 
_geom_bond_site_symmetry_2 
_ccdc_geom_bond_type 
O1           Ni7   1.907       .  S
O1           C22   1.265       .  A
O2          Ni25   1.924       .  S
O2           C11   1.276       .  A
O3           Ni7   1.910       .  S
O3          Ni25   1.929   1_556  S
O3          Ni19   1.922       .  S
O3           H26   0.966       .  S
C4           O21   1.277   1_554  A
C4           O13   1.279       .  A
C4          C637   1.480       .  S
O5          Ni24   1.924       .  S
O5           C11   1.271       .  A
O6          Ni24   1.899       .  S
O6            C8   1.268       .  A
Ni7          O10   1.907       .  S
Ni7          O12   1.892       .  S
C8           O18   1.281   1_554  A
C8          C664   1.484   1_554  S
O9          Ni25   1.926       .  S
O9           C15   1.275   1_554  A
O10          C15   1.269       .  A
C11         C624   1.496       .  S
O12          C14   1.265       .  A
O13         Ni24   1.919       .  S
C14          O20   1.280   1_556  A
C14         C644   1.482   1_556  S
C15         C654   1.493       .  S
H16          O17   0.966       .  S
O17         Ni25   1.905       .  S
O17         Ni19   1.895   1_554  S
O17         Ni24   1.887       .  S
O18         Ni19   1.956       .  S
Ni19         O23   1.927       .  S
Ni19         O21   1.910       .  S
O20         Ni25   1.964       .  S
C22          O23   1.275       .  A
C22         C614   1.490       .  S
O27         Ni33   1.922       .  S
O27          C48   1.269       .  A
O28         Ni51   1.929       .  S
O28          C37   1.278       .  A
O29         Ni33   1.892       .  S
O29         Ni51   1.910       .  S
O29         Ni45   1.897       .  S
O29          H52   0.966       .  S
C30          O47   1.274       .  A
C30          O39   1.276       .  A
C30         C577   1.444       .  S
O31         Ni50   1.914       .  S
O31          C37   1.268       .  A
O32         Ni50   1.890       .  S
O32          C34   1.265       .  A
Ni33         O36   1.907       .  S
Ni33         O38   1.903       .  S
C34          O44   1.277       .  A
C34         C607   1.483       .  S
O35         Ni51   1.915       .  S
O35          C41   1.277       .  A
O36          C41   1.276       .  A
C37         C617   1.493       .  S
O38          C40   1.267       .  A
O39         Ni50   1.910       .  S
C40          O46   1.280       .  A
C40         C587   1.496       .  S
C41         C597   1.470       .  S
H42          O43   0.966       .  S
O43         Ni51   1.895       .  S
O43         Ni45   1.903       .  S
O43         Ni50   1.890       .  S
O44         Ni45   1.945       .  S
Ni45         O49   1.927       .  S
Ni45         O47   1.901       .  S
O46         Ni51   1.960       .  S
C48          O49   1.274       .  A
C48         C627   1.496       .  S
O53         Ni59   1.912       .  S
O53          C74   1.267       .  A
O54         Ni77   1.895       .  S
O54          C63   1.267       .  A
O55         Ni59   1.917       .  S
O55         Ni77   1.907   1_556  S
O55         Ni71   1.913       .  S
O55          H78   0.967       .  S
C56          O73   1.268       .  A
C56          O65   1.274   1_556  A
C56         C524   1.465       .  S
O57         Ni76   1.932       .  S
O57          C63   1.273       .  A
O58         Ni76   1.906       .  S
O58          C60   1.268       .  A
Ni59         O62   1.918       .  S
Ni59         O64   1.906       .  S
C60          O70   1.275   1_554  A
C60         C657   1.491       .  S
O61         Ni77   1.897       .  S
O61          C67   1.263   1_554  A
O62          C67   1.267       .  A
C63         C564   1.475       .  S
O64          C66   1.274       .  A
O65         Ni76   1.935       .  S
C66          O72   1.283   1_556  A
C66         C537   1.488       .  S
C67         C547   1.470   1_556  S
H68          O69   0.966       .  S
O69         Ni77   1.896       .  S
O69         Ni71   1.903   1_554  S
O69         Ni76   1.919       .  S
O70         Ni71   1.936       .  S
Ni71         O75   1.908       .  S
Ni71         O73   1.890       .  S
O72         Ni77   1.966       .  S
C74          O75   1.269       .  A
C74         C554   1.489       .  S
O79         Ni85   1.912       .  S
O79         C100   1.268       .  A
O80        Ni103   1.912       .  S
O80          C89   1.268       .  A
O81         Ni85   1.921       .  S
O81        Ni103   1.917       .  S
O81         Ni97   1.926       .  S
O81         H104   0.966       .  S
C82          O99   1.271       .  A
C82          O91   1.272       .  A
C82         C497   1.477       .  S
O83        Ni102   1.917       .  S
O83          C89   1.267       .  A
O84        Ni102   1.895       .  S
O84          C86   1.265       .  A
Ni85         O88   1.925       .  S
Ni85         O90   1.900       .  S
C86          O96   1.272       .  A
C86         C594   1.470       .  S
O87        Ni103   1.891       .  S
O87          C93   1.263       .  A
O88          C93   1.270       .  A
C89         C557   1.489       .  S
O90          C92   1.269       .  A
O91        Ni102   1.919       .  S
C92          O98   1.277       .  A
C92         C504   1.467       .  S
C93         C514   1.468       .  S
H94          O95   0.966       .  S
O95        Ni103   1.896       .  S
O95         Ni97   1.905       .  S
O95        Ni102   1.915       .  S
O96         Ni97   1.924       .  S
Ni97        O101   1.909       .  S
Ni97         O99   1.902       .  S
O98        Ni103   1.948       .  S
C100        O101   1.268       .  A
C100        C567   1.487       .  S
O105       Ni111   1.915       .  S
O105        C126   1.267       .  A
O106       Ni129   1.926       .  S
O106        C115   1.274       .  A
O107       Ni111   1.907       .  S
O107       Ni129   1.915   1_554  S
O107       Ni123   1.914       .  S
O107        H130   0.966       .  S
C108        O125   1.279   1_556  A
C108        O117   1.277       .  A
C108        C634   1.472       .  S
O109       Ni128   1.913       .  S
O109        C115   1.268       .  A
O110       Ni128   1.883       .  S
O110        C112   1.263       .  A
Ni111       O114   1.910       .  S
Ni111       O116   1.902       .  S
C112        O122   1.271   1_556  A
C112        C464   1.463       .  S
O113       Ni129   1.898       .  S
O113        C119   1.270   1_556  A
O114        C119   1.271       .  A
C115        C477   1.483       .  S
O116        C118   1.267       .  A
O117       Ni128   1.912       .  S
C118        O124   1.273   1_554  A
C118        C457   1.469       .  S
C119        C544   1.457       .  S
H120        O121   0.966       .  S
O121       Ni129   1.890       .  S
O121       Ni123   1.899   1_556  S
O121       Ni128   1.883       .  S
O122       Ni123   1.929       .  S
Ni123       O127   1.922       .  S
Ni123       O125   1.912       .  S
O124       Ni129   1.930       .  S
C126        O127   1.271       .  A
C126        C487   1.484       .  S
O131       Ni137   1.918       .  S
O131        C152   1.264       .  A
O132       Ni155   1.905       .  S
O132        C141   1.269       .  A
O133       Ni137   1.906       .  S
O133       Ni155   1.898       .  S
O133       Ni149   1.917       .  S
O133        H156   0.966       .  S
C134        O151   1.278       .  A
C134        O143   1.277       .  A
C134        C474   1.491       .  S
O135       Ni154   1.913       .  S
O135        C141   1.271       .  A
O136       Ni154   1.909       .  S
O136        C138   1.267       .  A
Ni137       O140   1.916       .  S
Ni137       O142   1.887       .  S
C138        O148   1.268       .  A
C138        C434   1.481       .  S
O139       Ni155   1.930       .  S
O139        C145   1.281       .  A
O140        C145   1.275       .  A
C141        C517   1.465       .  S
O142        C144   1.265       .  A
O143       Ni154   1.926       .  S
C144        O150   1.273       .  A
C144        C444   1.464       .  S
C145        C484   1.490       .  S
H146        O147   0.966       .  S
O147       Ni155   1.921       .  S
O147       Ni149   1.888       .  S
O147       Ni154   1.903       .  S
O148       Ni149   1.919       .  S
Ni149       O153   1.882       .  S
Ni149       O151   1.918       .  S
O150       Ni155   1.937       .  S
C152        O153   1.262       .  A
C152        C574   1.452       .  S
O157       Ni163   1.937   1_556  S
O157        C178   1.277       .  A
O158       Ni181   1.905       .  S
O158        C167   1.265       .  A
O159       Ni163   1.901       .  S
O159       Ni181   1.892   1_554  S
O159       Ni175   1.901   1_554  S
O159        H182   0.966       .  S
C160        O177   1.263       .  A
C160        O169   1.268       .  A
C160        C414   1.473       .  S
O161       Ni180   1.916       .  S
O161        C167   1.270       .  A
O162       Ni180   1.890       .  S
O162        C164   1.274       .  A
Ni163       O166   1.949       .  S
Ni163       O168   1.912       .  S
C164        O174   1.283       .  A
C164        C467   1.461       .  S
O165       Ni181   1.904   1_554  S
O165        C171   1.271       .  A
O166        C171   1.280       .  A
C167        C397   1.469       .  S
O168        C170   1.269       .  A
O169       Ni180   1.931       .  S
C170        O176   1.270       .  A
C170        C527   1.476   1_554  S
C171        C427   1.494       .  S
H172        O173   0.966       .  S
O173       Ni181   1.945       .  S
O173       Ni175   1.904       .  S
O173       Ni180   1.910       .  S
O174       Ni175   1.952       .  S
Ni175       O179   1.899       .  S
Ni175       O177   1.906       .  S
O176       Ni181   1.919   1_554  S
C178        O179   1.268       .  A
C178        C404   1.468       .  S
O183       Ni189   1.932       .  S
O183        C204   1.273       .  A
O184       Ni207   1.922       .  S
O184        C193   1.270       .  A
O185       Ni189   1.920       .  S
O185       Ni207   1.920       .  S
O185       Ni201   1.910       .  S
O185        H208   0.966       .  S
C186        O203   1.266       .  A
C186        O195   1.275       .  A
C186        C424   1.493       .  S
O187       Ni206   1.945       .  S
O187        C193   1.276       .  A
O188       Ni206   1.900       .  S
O188        C190   1.273       .  A
Ni189       O192   1.926       .  S
Ni189       O194   1.910       .  S
C190        O200   1.279       .  A
C190        C447   1.470       .  S
O191       Ni207   1.913       .  S
O191        C197   1.273       .  A
O192        C197   1.274       .  A
C193        C374   1.500       .  S
O194        C196   1.270       .  A
O195       Ni206   1.950       .  S
C196        O202   1.267       .  A
C196        C494   1.469       .  S
C197        C417   1.480       .  S
H198        O199   0.965       .  S
O199       Ni207   1.926       .  S
O199       Ni201   1.918       .  S
O199       Ni206   1.917       .  S
O200       Ni201   1.952       .  S
Ni201       O205   1.925       .  S
Ni201       O203   1.897       .  S
O202       Ni207   1.904       .  S
C204        O205   1.271       .  A
C204        C384   1.490       .  S
O209       Ni215   1.902   1_554  S
O209        C230   1.261       .  A
O210       Ni233   1.919       .  S
O210        C219   1.272       .  A
O211       Ni215   1.874       .  S
O211       Ni233   1.891       .  S
O211       Ni227   1.920   1_556  S
O211        H234   0.966       .  S
C212        O229   1.286       .  A
C212        O221   1.280       .  A
C212        C364   1.470       .  S
O213       Ni232   1.918   1_556  S
O213        C219   1.271       .  A
O214       Ni232   1.917       .  S
O214        C216   1.268       .  A
Ni215       O218   1.910       .  S
Ni215       O220   1.889       .  S
C216        O226   1.270       .  A
C216        C647   1.488       .  S
O217       Ni233   1.928       .  S
O217        C223   1.281       .  A
O218        C223   1.278       .  A
C219        C407   1.467       .  S
O220        C222   1.265       .  A
O221       Ni232   1.912       .  S
C222        O228   1.277       .  A
C222        C344   1.478       .  S
C223        C354   1.464       .  S
H224        O225   0.967       .  S
O225       Ni233   1.908   1_554  S
O225       Ni227   1.892       .  S
O225       Ni232   1.886       .  S
O226       Ni227   1.927       .  S
Ni227       O231   1.932       .  S
Ni227       O229   1.924       .  S
O228       Ni233   1.951       .  S
C230        O231   1.272       .  A
C230        C454   1.468       .  S
O235       Ni241   1.905       .  S
O235        C256   1.266       .  A
O236       Ni259   1.950       .  S
O236        C245   1.277       .  A
O237       Ni241   1.889       .  S
O237       Ni259   1.903       .  S
O237       Ni253   1.924       .  S
O237        H260   0.966       .  S
C238        O255   1.283       .  A
C238        O247   1.278       .  A
C238        C357   1.457       .  S
O239       Ni258   1.902       .  S
O239        C245   1.263       .  A
O240       Ni258   1.912       .  S
O240        C242   1.267       .  A
Ni241       O244   1.901       .  S
Ni241       O246   1.903       .  S
C242        O252   1.273       .  A
C242        C584   1.499       .  S
O243       Ni259   1.933       .  S
O243        C249   1.286       .  A
O244        C249   1.277       .  A
C245        C387   1.481       .  S
O246        C248   1.267       .  A
O247       Ni258   1.910       .  S
C248        O254   1.284       .  A
C248        C334   1.495       .  S
C249        C367   1.475       .  S
H250        O251   0.967       .  S
O251       Ni259   1.930       .  S
O251       Ni253   1.899       .  S
O251       Ni258   1.898       .  S
O252       Ni253   1.942       .  S
Ni253       O257   1.920       .  S
Ni253       O255   1.926       .  S
O254       Ni259   1.971       .  S
C256        O257   1.270       .  A
C256        C437   1.488       .  S
O261       Ni267   1.938       .  S
O261        C282   1.277       .  A
O262       Ni285   1.906       .  S
O262        C271   1.267       .  A
O263       Ni267   1.895       .  S
O263       Ni285   1.890   1_554  S
O263       Ni279   1.895       .  S
O263        H286   0.966       .  S
C264        O281   1.268       .  A
C264        O273   1.270       .  A
C264        C347   1.492       .  S
O265       Ni284   1.920       .  S
O265        C271   1.270       .  A
O266       Ni284   1.905       .  S
O266        C268   1.272       .  A
Ni267       O270   1.935       .  S
Ni267       O272   1.914       .  S
C268        O278   1.283       .  A
C268        C534   1.491       .  S
O269       Ni285   1.902       .  S
O269        C275   1.274       .  A
O270        C275   1.280   1_554  A
C271        C314   1.469       .  S
O272        C274   1.271   1_554  A
O273       Ni284   1.926       .  S
C274        O280   1.273       .  A
C274        C667   1.483       .  S
C275        C394   1.475       .  S
H276        O277   0.965       .  S
O277       Ni285   1.925       .  S
O277       Ni279   1.919   1_556  S
O277       Ni284   1.911       .  S
O278       Ni279   1.966   1_556  S
Ni279       O283   1.908       .  S
Ni279       O281   1.921   1_554  S
O280       Ni285   1.940       .  S
C282        O283   1.268       .  A
C282        C327   1.471       .  S
O287       Ni293   1.931       .  S
O287        C308   1.274       .  A
O288       Ni311   1.936       .  S
O288        C297   1.276       .  A
O289       Ni293   1.895       .  S
O289       Ni311   1.910       .  S
O289       Ni305   1.930       .  S
O289        H312   0.966       .  S
C290        O307   1.288       .  A
C290        O299   1.278       .  A
C290        C324   1.484       .  S
O291       Ni310   1.895       .  S
O291        C297   1.265       .  A
O292       Ni310   1.915       .  S
O292        C294   1.267       .  A
Ni293       O296   1.923       .  S
Ni293       O298   1.914       .  S
C294        O304   1.273       .  A
C294        C377   1.512       .  S
O295       Ni311   1.926       .  S
O295        C301   1.277       .  A
O296        C301   1.278       .  A
C297        C604   1.473       .  S
O298        C300   1.272       .  A
O299       Ni310   1.901       .  S
C300        O306   1.285       .  A
C300        C337   1.497       .  S
C301        C317   1.476       .  S
H302        O303   0.967       .  S
O303       Ni311   1.919       .  S
O303       Ni305   1.887       .  S
O303       Ni310   1.889       .  S
O304       Ni305   1.946       .  S
Ni305       O309   1.901       .  S
Ni305       O307   1.949       .  S
O306       Ni311   1.968       .  S
C308        O309   1.269       .  A
C308        C507   1.487       .  S
C313        C314   1.404       .  A
C313        C318   1.399       .  A
C313        F320   1.358       .  S
C314        C315   1.404       .  A
C315        C316   1.401       .  A
C315        F322   1.358       .  S
C316        C317   1.407       .  A
C316        F321   1.358       .  S
C317        C318   1.406       .  A
C318        F319   1.358       .  S
C323        C324   1.408       .  A
C323        C328   1.406       .  A
C323        F330   1.358       .  S
C324        C325   1.413       .  A
C325        C326   1.393       .  A
C325        F332   1.359       .  S
C326        C327   1.398       .  A
C326        F331   1.358       .  S
C327        C328   1.407       .  A
C328        F329   1.358       .  S
C333        C334   1.405       .  A
C333        C338   1.411   1_655  A
C333        F340   1.357       .  S
C334        C335   1.413       .  A
C335        C336   1.411   1_655  A
C335        F342   1.358       .  S
C336        C337   1.406       .  A
C336        F341   1.357       .  S
C337        C338   1.413       .  A
C338        F339   1.358       .  S
C343        C344   1.406       .  A
C343        C348   1.412       .  A
C343        F350   1.357   1_556  S
C344        C345   1.404       .  A
C345        C346   1.387       .  A
C345        F352   1.359       .  S
C346        C347   1.410   1_655  A
C346        F351   1.359       .  S
C347        C348   1.415   1_455  A
C348        F349   1.357   1_656  S
C353        C354   1.403       .  A
C353        C358   1.396       .  A
C353        F360   1.358       .  S
C354        C355   1.406       .  A
C355        C356   1.395       .  A
C355        F362   1.358       .  S
C356        C357   1.400       .  A
C356        F361   1.358       .  S
C357        C358   1.403       .  A
C358        F359   1.358       .  S
C363        C364   1.410       .  A
C363        C368   1.395       .  A
C363        F370   1.358       .  S
C364        C365   1.401       .  A
C365        C366   1.393       .  A
C365        F372   1.358       .  S
C366        C367   1.413       .  A
C366        F371   1.358       .  S
C367        C368   1.403       .  A
C368        F369   1.358       .  S
C373        C374   1.406       .  A
C373        C378   1.406       .  A
C373        F380   1.358       .  S
C374        C375   1.410       .  A
C375        C376   1.411       .  A
C375        F382   1.358       .  S
C376        C377   1.416       .  A
C376        F381   1.357       .  S
C377        C378   1.417       .  A
C378        F379   1.358       .  S
C383        C384   1.409       .  A
C383        C388   1.410   1_565  A
C383        F390   1.355       .  S
C384        C385   1.407       .  A
C385        C386   1.401   1_565  A
C385        F392   1.358       .  S
C386        C387   1.406       .  A
C386        F391   1.358       .  S
C387        C388   1.407       .  A
C388        F389   1.357       .  S
C393        C394   1.407   1_554  A
C393        C398   1.403       .  A
C393        F400   1.358       .  S
C394        C395   1.409       .  A
C395        C396   1.392       .  A
C395        F402   1.359       .  S
C396        C397   1.401       .  A
C396        F401   1.358       .  S
C397        C398   1.407   1_556  A
C398        F399   1.358       .  S
C403        C404   1.404       .  A
C403        C408   1.399   1_565  A
C403        F410   1.358       .  S
C404        C405   1.403       .  A
C405        C406   1.400   1_565  A
C405        F412   1.358   1_556  S
C406        C407   1.405       .  A
C406        F411   1.358   1_556  S
C407        C408   1.404       .  A
C408        F409   1.358       .  S
C413        C414   1.405       .  A
C413        C418   1.401       .  A
C413        F420   1.358       .  S
C414        C415   1.403       .  A
C415        C416   1.399       .  A
C415        F422   1.358       .  S
C416        C417   1.409       .  A
C416        F421   1.358       .  S
C417        C418   1.407       .  A
C418        F419   1.358       .  S
C423        C424   1.410       .  A
C423        C428   1.397       .  A
C423        F430   1.357       .  S
C424        C425   1.411       .  A
C425        C426   1.403       .  A
C425        F432   1.358       .  S
C426        C427   1.412       .  A
C426        F431   1.358       .  S
C427        C428   1.410       .  A
C428        F429   1.358       .  S
C433        C434   1.409       .  A
C433        C438   1.398       .  A
C433        F440   1.358       .  S
C434        C435   1.405       .  A
C435        C436   1.400       .  A
C435        F442   1.358       .  S
C436        C437   1.413       .  A
C436        F441   1.358       .  S
C437        C438   1.409       .  A
C438        F439   1.358       .  S
C443        C444   1.405       .  A
C443        C448   1.403       .  A
C443        F450   1.358       .  S
C444        C445   1.403       .  A
C445        C446   1.393       .  A
C445        F452   1.359       .  S
C446        C447   1.404       .  A
C446        F451   1.359       .  S
C447        C448   1.406       .  A
C448        F449   1.358       .  S
C453        C454   1.404       .  A
C453        C458   1.400       .  A
C453        F460   1.358       .  S
C454        C455   1.407       .  A
C455        C456   1.397       .  A
C455        F462   1.358       .  S
C456        C457   1.402       .  A
C456        F461   1.358       .  S
C457        C458   1.407       .  A
C458        F459   1.358       .  S
C463        C464   1.400   1_554  A
C463        C468   1.393       .  A
C463        F470   1.358       .  S
C464        C465   1.409       .  A
C465        C466   1.397       .  A
C465        F472   1.358       .  S
C466        C467   1.399       .  A
C466        F471   1.358       .  S
C467        C468   1.407   1_556  A
C468        F469   1.358       .  S
C473        C474   1.408       .  A
C473        C478   1.395       .  A
C473        F480   1.358       .  S
C474        C475   1.416       .  A
C475        C476   1.404       .  A
C475        F482   1.358       .  S
C476        C477   1.404       .  A
C476        F481   1.358       .  S
C477        C478   1.409       .  A
C478        F479   1.359       .  S
C483        C484   1.405       .  A
C483        C488   1.396       .  A
C483        F490   1.356       .  S
C484        C485   1.415       .  A
C485        C486   1.402       .  A
C485        F492   1.358       .  S
C486        C487   1.404       .  A
C486        F491   1.357       .  S
C487        C488   1.411       .  A
C488        F489   1.358       .  S
C493        C494   1.408       .  A
C493        C498   1.394       .  A
C493        F500   1.358       .  S
C494        C495   1.401       .  A
C495        C496   1.394       .  A
C495        F502   1.358       .  S
C496        C497   1.413       .  A
C496        F501   1.358       .  S
C497        C498   1.405       .  A
C498        F499   1.358       .  S
C503        C504   1.402       .  A
C503        C508   1.401       .  A
C503        F510   1.358       .  S
C504        C505   1.400       .  A
C505        C506   1.395       .  A
C505        F512   1.359       .  S
C506        C507   1.412       .  A
C506        F511   1.358       .  S
C507        C508   1.413       .  A
C508        F509   1.358       .  S
C513        C514   1.408   1_655  A
C513        C518   1.397       .  A
C513        F520   1.358       .  S
C514        C515   1.403       .  A
C515        C516   1.390   1_455  A
C515        F522   1.358       .  S
C516        C517   1.405       .  A
C516        F521   1.359       .  S
C517        C518   1.402       .  A
C518        F519   1.356       .  S
C523        C524   1.402       .  A
C523        C528   1.390       .  A
C523        F530   1.359       .  S
C524        C525   1.405   1_556  A
C525        C526   1.399       .  A
C525        F532   1.358       .  S
C526        C527   1.408   1_554  A
C526        F531   1.357       .  S
C527        C528   1.410       .  A
C528        F529   1.358       .  S
C533        C534   1.410       .  A
C533        C538   1.399       .  A
C533        F540   1.358       .  S
C534        C535   1.410       .  A
C535        C536   1.407   1_556  A
C535        F542   1.358   1_556  S
C536        C537   1.410   1_554  A
C536        F541   1.358       .  S
C537        C538   1.406       .  A
C538        F539   1.358       .  S
C543        C544   1.402       .  A
C543        C548   1.397   1_655  A
C543        F550   1.358       .  S
C544        C545   1.401   1_554  A
C545        C546   1.387   1_655  A
C545        F552   1.359       .  S
C546        C547   1.408   1_556  A
C546        F551   1.359       .  S
C547        C548   1.409       .  A
C548        F549   1.358       .  S
C553        C554   1.407       .  A
C553        C558   1.395       .  A
C553        F560   1.358       .  S
C554        C555   1.414       .  A
C555        C556   1.399       .  A
C555        F562   1.358       .  S
C556        C557   1.407       .  A
C556        F561   1.358       .  S
C557        C558   1.414       .  A
C558        F559   1.358       .  S
C563        C564   1.406       .  A
C563        C568   1.400       .  A
C563        F570   1.358       .  S
C564        C565   1.403       .  A
C565        C566   1.395       .  A
C565        F572   1.358       .  S
C566        C567   1.413       .  A
C566        F571   1.358       .  S
C567        C568   1.410       .  A
C568        F569   1.358       .  S
C573        C574   1.401       .  A
C573        C578   1.382       .  A
C573        F580   1.359       .  S
C574        C575   1.406       .  A
C575        C576   1.397       .  A
C575        F582   1.358       .  S
C576        C577   1.400       .  A
C576        F581   1.357       .  S
C577        C578   1.400       .  A
C578        F579   1.360       .  S
C583        C584   1.409       .  A
C583        C588   1.402       .  A
C583        F590   1.358       .  S
C584        C585   1.414       .  A
C585        C586   1.411       .  A
C585        F592   1.357       .  S
C586        C587   1.408       .  A
C586        F591   1.357       .  S
C587        C588   1.410       .  A
C588        F589   1.358       .  S
C593        C594   1.409       .  A
C593        C598   1.396   1_565  A
C593        F600   1.358       .  S
C594        C595   1.404       .  A
C595        C596   1.390       .  A
C595        F602   1.359       .  S
C596        C597   1.407   1_565  A
C596        F601   1.359       .  S
C597        C598   1.405       .  A
C598        F599   1.358       .  S
C603        C604   1.400       .  A
C603        C608   1.402       .  A
C603        F610   1.358       .  S
C604        C605   1.410       .  A
C605        C606   1.398       .  A
C605        F612   1.359       .  S
C606        C607   1.402       .  A
C606        F611   1.358       .  S
C607        C608   1.415       .  A
C608        F609   1.358       .  S
C613        C614   1.417       .  A
C613        C618   1.398       .  A
C613        F620   1.359       .  S
C614        C615   1.402       .  A
C615        C616   1.402       .  A
C615        F622   1.358       .  S
C616        C617   1.419       .  A
C616        F621   1.358       .  S
C617        C618   1.403       .  A
C618        F619   1.358       .  S
C623        C624   1.407       .  A
C623        C628   1.399       .  A
C623        F630   1.358       .  S
C624        C625   1.416       .  A
C625        C626   1.404       .  A
C625        F632   1.358       .  S
C626        C627   1.407       .  A
C626        F631   1.358       .  S
C627        C628   1.415       .  A
C628        F629   1.358       .  S
C633        C634   1.404   1_554  A
C633        C638   1.397       .  A
C633        F640   1.357       .  S
C634        C635   1.408       .  A
C635        C636   1.389       .  A
C635        F642   1.359       .  S
C636        C637   1.409   1_556  A
C636        F641   1.359       .  S
C637        C638   1.411       .  A
C638        F639   1.358       .  S
C643        C644   1.408   1_556  A
C643        C648   1.399       .  A
C643        F650   1.358       .  S
C644        C645   1.405       .  A
C645        C646   1.408       .  A
C645        F652   1.357       .  S
C646        C647   1.413       .  A
C646        F651   1.358       .  S
C647        C648   1.406   1_554  A
C648        F649   1.358       .  S
C653        C654   1.414   1_565  A
C653        C658   1.391       .  A
C653        F660   1.359       .  S
C654        C655   1.409   1_556  A
C655        C656   1.406   1_545  A
C655        F662   1.357       .  S
C656        C657   1.413       .  A
C656        F661   1.357       .  S
C657        C658   1.407   1_554  A
C658        F659   1.358       .  S
C663        C664   1.408       .  A
C663        C668   1.416       .  A
C663        F670   1.357       .  S
C664        C665   1.407       .  A
C665        C666   1.393       .  A
C665        F672   1.359   1_556  S
C666        C667   1.401       .  A
C666        F671   1.359   1_556  S
C667        C668   1.411       .  A
C668        F669   1.357       .  S
