geometry optimzed in LAMMPS
_audit_creation_date              2020-12-01 
_audit_creation_method            'lammps2cif' 
_symmetry_space_group_name_H-M    'P1' 
_symmetry_Int_Tables_number       1 
_symmetry_cell_setting            triclinic 
loop_ 
_symmetry_equiv_pos_as_xyz 
  x,y,z 
_cell_length_a                    35.20031971 
_cell_length_b                    35.144912809194714 
_cell_length_c                    35.49465667319159 
_cell_angle_alpha                 91.39745012110423 
_cell_angle_beta                  90.799920577156 
_cell_angle_gamma                 90.41830321736514 
loop_ 
_atom_site_label 
_atom_site_type_symbol 
_atom_site_fract_x 
_atom_site_fract_y 
_atom_site_fract_z 
_atom_site_charge 
O1          O  0.48579158  0.50933380  0.90409315    -0.79300
O2          O  0.55891574  0.52253284  0.05827603    -0.79300
O3          O  0.43183217  0.53375572  0.00932654    -0.79300
O4          O  0.57049069  0.55600316  0.93702945    -0.79300
O5          O  0.48720345  0.54171826  0.03908509    -0.79400
O6          O  0.56139144  0.50840030  0.89619519    -0.79300
O7          O  0.56989339  0.56232767  0.01380393    -0.79300
O8          O  0.47812275  0.55287057  0.94952696    -0.79300
C9          C  0.47651953  0.54288354  0.91475798     1.10400
C10         C  0.57106444  0.55454041  0.04822743     1.10300
C11         C  0.45134569  0.54949481  0.03587622     1.10400
C12         C  0.57038032  0.54309986  0.90355382     1.10300
O13         O  0.56528233  0.43825079  0.93872627    -0.79300
O14         O  0.50130838  0.47683722  0.07533184    -0.79400
O15         O  0.44359181  0.47977702  0.95180144    -0.79300
O16         O  0.60338452  0.48596334  0.01725066    -0.79300
O17         O  0.55376663  0.44813715  0.02535041    -0.79300
O18         O  0.48788265  0.43782334  0.94436315    -0.79300
O19         O  0.60878433  0.48320827  0.94187934    -0.79200
O20         O  0.46536673  0.46681043  0.02436798    -0.79300
Co21       Co  0.52527162  0.47385505  0.92408436     1.51500
Co22       Co  0.51990331  0.49260223  0.02871204     1.51700
Co23       Co  0.47603139  0.51212126  0.98739891     1.51600
Co24       Co  0.58449404  0.52169029  0.97749227     1.51500
O25         O  0.53052079  0.50057830  0.97473165    -1.41200
C26         C  0.59948801  0.44849652  0.93569195     1.10300
C27         C  0.47226115  0.46159786  0.05988758     1.10400
C28         C  0.45353910  0.44696515  0.94021802     1.10400
C29         C  0.58942629  0.45411373  0.02710467     1.10300
O30         O  0.59829477  0.98505685  0.45898570    -0.79300
O31         O  0.58406157  0.07011321  0.51616838    -0.79300
O32         O  0.56744565  0.06067149  0.42964022    -0.79300
O33         O  0.54917622  0.98785443  0.57632482    -0.79300
O34         O  0.55504014  0.11450143  0.46023433    -0.79400
O35         O  0.59515477  0.98396204  0.53553787    -0.79300
O36         O  0.54640967  0.06348741  0.56499607    -0.79300
O37         O  0.55732925  0.98619133  0.41294311    -0.79300
C38         C  0.59057170  0.97893331  0.42467154     1.10400
C39         C  0.57835493  0.07335726  0.55131141     1.10300
C40         C  0.57242287  0.09710486  0.43420241     1.10400
C41         C  0.58364167  0.98081099  0.56881433     1.10300
O42         O  0.52664853  0.93680207  0.52964043    -0.79300
O43         O  0.49146755  0.07217720  0.44648807    -0.79400
O44         O  0.48336695  0.98218368  0.44518254    -0.79300
O45         O  0.47086193  0.05200451  0.52794456    -0.79300
O46         O  0.50853538  0.09928126  0.51728353    -0.79300
O47         O  0.52764379  0.93912076  0.45476948    -0.79300
O48         O  0.47843715  0.97618481  0.53637771    -0.79200
O49         O  0.50209654  0.03722433  0.39489490    -0.79300
Co50       Co  0.56159004  0.96442089  0.49467818     1.51500
Co51       Co  0.54000286  0.06818074  0.48153036     1.51700
Co52       Co  0.52311995  0.02188119  0.44127927     1.51600
Co53       Co  0.51151669  0.01992103  0.54809962     1.51500
O54         O  0.53393937  0.01419041  0.49603192    -1.41200
C55         C  0.49180990  0.94295706  0.53685226     1.10300
C56         C  0.48382428  0.06356332  0.41141420     1.10400
C57         C  0.49393113  0.94769123  0.44430127     1.10400
C58         C  0.47672724  0.08726421  0.52817357     1.10300
O59         O  0.97378919  0.43543843  0.43730277    -0.79300
O60         O  0.05583957  0.44164791  0.50417473    -0.79300
O61         O  0.05543972  0.45939205  0.41705764    -0.79300
O62         O  0.97229317  0.48067121  0.55800611    -0.79300
O63         O  0.10683843  0.46780663  0.45277621    -0.79400
O64         O  0.96612164  0.43603385  0.51379953    -0.79300
O65         O  0.04826487  0.48044158  0.55350958    -0.79300
O66         O  0.98390414  0.47729307  0.39457871    -0.79300
C67         C  0.97293086  0.44424746  0.40308838     1.10400
C68         C  0.05898400  0.44850387  0.53940354     1.10300
C69         C  0.09080200  0.45213274  0.42433663     1.10400
C70         C  0.96436582  0.44643139  0.54803250     1.10300
O71         O  0.92658803  0.50836627  0.51084026    -0.79300
O72         O  0.07204221  0.53467977  0.44029300    -0.79400
O73         O  0.98519482  0.55016481  0.43147971    -0.79300
O74         O  0.04698531  0.55690907  0.52121223    -0.79300
O75         O  0.09024641  0.51451018  0.51001121    -0.79300
O76         O  0.93656574  0.51019461  0.43607188    -0.79300
O77         O  0.96900206  0.55380249  0.52190529    -0.79200
O78         O  0.04328599  0.52775587  0.38469583    -0.79300
Co79       Co  0.95403561  0.47275328  0.47463609     1.51500
Co80       Co  0.06015723  0.48570618  0.47112012     1.51700
Co81       Co  0.02045449  0.50698484  0.42810914     1.51600
Co82       Co  0.00912185  0.51770196  0.53509333     1.51500
O83         O  0.00612256  0.49613729  0.48154087    -1.41200
C84         C  0.93478526  0.54262127  0.52082455     1.10300
C85         C  0.06883969  0.54371342  0.40526798     1.10400
C86         C  0.94980044  0.54314347  0.42890502     1.10400
C87         C  0.08153491  0.54764904  0.52092153     1.10300
C88         C  0.78435927  0.29268558  0.24994220     0.04000
C89         C  0.76894006  0.30551001  0.21582437    -0.12200
C90         C  0.73423222  0.29061879  0.20174371     0.01500
C91         C  0.71581034  0.26165708  0.22132006    -0.10700
C92         C  0.73098806  0.24830168  0.25528233     0.04000
C93         C  0.76566972  0.26343658  0.26883021    -0.10100
H94         H  0.78229860  0.32909321  0.20185292     0.09600
H95         H  0.68879948  0.25052871  0.21076577     0.07100
H96         H  0.77707216  0.25412442  0.29553400     0.07000
C97         C  0.75701569  0.70798197  0.30121356     0.04000
C98         C  0.74414407  0.74367371  0.31417938    -0.12200
C99         C  0.71436992  0.76221062  0.29527626     0.01500
C100        C  0.69740498  0.74440951  0.26323743    -0.10700
C101        C  0.70946332  0.70843308  0.25056786     0.04000
C102        C  0.73970457  0.69094695  0.26916294    -0.10100
H103        H  0.75624798  0.75634954  0.33978018     0.09600
H104        H  0.67428578  0.75812129  0.24858010     0.07100
H105        H  0.74955019  0.66355740  0.25870074     0.07000
C106        C  0.75137222  0.28653539  0.76095716     0.04000
C107        C  0.73728897  0.25322223  0.74257892    -0.12200
C108        C  0.75356878  0.23939605  0.70896743     0.01500
C109        C  0.78538320  0.25832216  0.69474731    -0.10700
C110        C  0.79987975  0.29151686  0.71253685     0.04000
C111        C  0.78291436  0.30526027  0.74571207    -0.10100
H112        H  0.71267895  0.23889480  0.75357572     0.09600
H113        H  0.79784593  0.24819457  0.66866662     0.07100
H114        H  0.79358183  0.33137726  0.75894861     0.07000
C115        C  0.34244572  0.73800417  0.31134352     0.04000
C116        C  0.35772862  0.72179551  0.27816427    -0.12200
C117        C  0.33949441  0.69090132  0.25916292     0.01500
C118        C  0.30498300  0.67705052  0.27330980    -0.10700
C119        C  0.28960437  0.69259875  0.30652834     0.04000
C120        C  0.30858249  0.72277741  0.32550020    -0.10100
H121        H  0.38455706  0.73234000  0.26787818     0.09600
H122        H  0.29018898  0.65376219  0.25874803     0.07100
H123        H  0.29657567  0.73477615  0.35106595     0.07000
C124        C  0.34801307  0.68254718  0.70352293     0.04000
C125        C  0.36488046  0.71385109  0.68614515    -0.12200
C126        C  0.34939998  0.72841947  0.65287898     0.01500
C127        C  0.31640076  0.71177205  0.63725111    -0.10700
C128        C  0.29833436  0.68139712  0.65468595     0.04000
C129        C  0.31445027  0.66657453  0.68769974    -0.10100
H130        H  0.39034637  0.72678911  0.69844906     0.09600
H131        H  0.30544243  0.72158827  0.61052581     0.07100
H132        H  0.30140424  0.64213407  0.70043454     0.07000
C133        C  0.30933470  0.30877818  0.73101862     0.04000
C134        C  0.32605443  0.27851660  0.71089979    -0.12200
C135        C  0.31077959  0.26531752  0.67620132     0.01500
C136        C  0.27693953  0.28117003  0.66267311    -0.10700
C137        C  0.25886641  0.31047812  0.68298382     0.04000
C138        C  0.27522900  0.32413875  0.71716998    -0.10100
H139        H  0.35172453  0.26569883  0.72182680     0.09600
H140        H  0.26571300  0.27221719  0.63525971     0.07100
H141        H  0.26196603  0.34745926  0.73241261     0.07000
C142        C  0.70290787  0.70387153  0.71439767     0.04000
C143        C  0.69218817  0.74107226  0.70581096    -0.12200
C144        C  0.70940196  0.76042534  0.67633895     0.01500
C145        C  0.73839465  0.74231919  0.65585517    -0.10700
C146        C  0.74917994  0.70483770  0.66359271     0.04000
C147        C  0.73107290  0.68583873  0.69288355    -0.10100
H148        H  0.66973051  0.75467824  0.72164966     0.09600
H149        H  0.75263469  0.75743000  0.63381219     0.07100
H150        H  0.73775182  0.65636854  0.69799925     0.07000
C151        C  0.31692861  0.24132831  0.26895609     0.04000
C152        C  0.28236571  0.25319102  0.28432773    -0.12200
C153        C  0.26599692  0.28786447  0.27381210     0.01500
C154        C  0.28376533  0.30937626  0.24595285    -0.10700
C155        C  0.31776992  0.29714151  0.22950234     0.04000
C156        C  0.33371542  0.26272066  0.24077554    -0.10100
H157        H  0.26961449  0.23657178  0.30617116     0.09600
H158        H  0.27257233  0.33695356  0.23883652     0.07100
H159        H  0.36031737  0.25325760  0.22885548     0.07000
C160        C  0.19084623  0.38462291  0.64624534    -0.27400
C161        C  0.16142237  0.36183109  0.63062108     0.06300
C162        C  0.16346285  0.32210146  0.63366568     0.25900
C163        C  0.19471510  0.30563407  0.65161828    -0.11800
C164        C  0.22448613  0.32842874  0.66672986    -0.25800
C165        C  0.22214038  0.36821948  0.66400939     0.36700
C166        C  0.13027877  0.37987037  0.60911288     0.06300
F167        F  0.13526498  0.29929367  0.61928830    -0.19600
H168        H  0.19586738  0.27489705  0.65345880     0.16100
F169        F  0.25103581  0.39116504  0.67660608    -0.23300
H170        H  0.19024778  0.41529203  0.64344507     0.17900
C171        C  0.11035296  0.41079049  0.62471374     0.25900
C172        C  0.08518018  0.43130716  0.60240526    -0.11800
C173        C  0.07961809  0.42174431  0.56396886    -0.25800
C174        C  0.09776916  0.38920051  0.54902284     0.36800
C175        C  0.12282313  0.36855474  0.57150645    -0.27500
F176        F  0.11612808  0.42186596  0.66126973    -0.19600
H177        H  0.07132421  0.45587669  0.61497255     0.16100
F178        F  0.09306944  0.37844633  0.51225559    -0.23300
H179        H  0.13802108  0.34483001  0.55888934     0.17900
C180        C  0.17872117  0.58835992  0.54322857    -0.27400
C181        C  0.17082984  0.61369313  0.57319740     0.06300
C182        C  0.13277615  0.62089069  0.58248857     0.25900
C183        C  0.10334605  0.60106314  0.56359600    -0.11800
C184        C  0.11153476  0.57367021  0.53549784    -0.25800
C185        C  0.14944000  0.56838846  0.52457304     0.36700
C186        C  0.20253583  0.63093829  0.59559074     0.06300
F187        F  0.12417371  0.64519363  0.61137407    -0.19600
H188        H  0.07436352  0.60552294  0.57245717     0.16100
F189        F  0.15832147  0.54315101  0.49653588    -0.23300
H190        H  0.20778153  0.58327807  0.53492684     0.17900
C191        C  0.23159111  0.60797196  0.61014605     0.25900
C192        C  0.26203181  0.62440894  0.63042302    -0.11800
C193        C  0.26409851  0.66395897  0.63649167    -0.25800
C194        C  0.23454031  0.68683794  0.62267014     0.36800
C195        C  0.20410408  0.67038324  0.60237762    -0.27500
F196        F  0.23044999  0.56958282  0.60489534    -0.19600
H197        H  0.28456933  0.60627773  0.64050936     0.16100
F198        F  0.23509836  0.72512778  0.62875197    -0.23300
H199        H  0.18205138  0.68854948  0.59136683     0.17900
C200        C  0.13349472  0.59625811  0.33893785    -0.27400
C201        C  0.15431388  0.62013534  0.36420683     0.06300
C202        C  0.14338207  0.62187475  0.40224363     0.25900
C203        C  0.11459881  0.59792945  0.41503243    -0.11800
C204        C  0.09525216  0.57252596  0.39012116    -0.25800
C205        C  0.10409920  0.57289867  0.35159401     0.36700
C206        C  0.18837405  0.64130333  0.35090210     0.06300
F207        F  0.16056297  0.64659814  0.42715796    -0.19600
H208        H  0.10782044  0.59887060  0.44475090     0.16100
F209        F  0.08598973  0.54909372  0.32646551    -0.23300
H210        H  0.14105679  0.59444063  0.30945431     0.17900
C211        C  0.22316783  0.64062418  0.37112998     0.25900
C212        C  0.25559456  0.65836347  0.35704317    -0.11800
C213        C  0.25436409  0.67629158  0.32218029    -0.25800
C214        C  0.21977740  0.67730024  0.30201577     0.36800
C215        C  0.18710586  0.66016337  0.31636668    -0.27500
F216        F  0.22651023  0.62103974  0.40348358    -0.19600
H217        H  0.28212593  0.65694838  0.37275076     0.16100
F218        F  0.21762303  0.69497242  0.26848894    -0.23300
H219        H  0.16080763  0.66130924  0.30026457     0.17900
C220        C  0.17303777  0.40324609  0.37669939    -0.27400
C221        C  0.15491604  0.37299527  0.35716180     0.06300
C222        C  0.11523158  0.36909205  0.35891790     0.25900
C223        C  0.09409652  0.39518806  0.38042513    -0.11800
C224        C  0.11244145  0.42516160  0.40056075    -0.25800
C225        C  0.15214274  0.42917780  0.39809929     0.36700
C226        C  0.17838643  0.34593642  0.33542147     0.06300
F227        F  0.09719592  0.33961111  0.34068682    -0.19600
H228        H  0.06355940  0.39155335  0.38196254     0.16100
F229        F  0.17077189  0.45866901  0.41575710    -0.23300
H230        H  0.20359020  0.40685468  0.37517718     0.17900
C231        C  0.17812173  0.34586614  0.29590077     0.25900
C232        C  0.20529901  0.32504562  0.27585517    -0.11800
C233        C  0.23342736  0.30432065  0.29493302    -0.25800
C234        C  0.23235130  0.30321182  0.33464842     0.36800
C235        C  0.20504009  0.32382486  0.35450355    -0.27500
F236        F  0.15329350  0.36795715  0.27686016    -0.19600
H237        H  0.20525907  0.32631410  0.24543749     0.16100
F238        F  0.25939566  0.28485859  0.35470526    -0.23300
H239        H  0.20581815  0.32405031  0.38499659     0.17900
C240        C  0.84345242  0.57992206  0.56357305    -0.27400
C241        C  0.85295189  0.61827839  0.57058883     0.06300
C242        C  0.88774668  0.63241733  0.55798935     0.25900
C243        C  0.91347367  0.60796379  0.54019839    -0.11800
C244        C  0.90490788  0.56898443  0.53460184    -0.25800
C245        C  0.86899568  0.55542856  0.54549983     0.36700
C246        C  0.82791114  0.64236777  0.59398219     0.06300
F247        F  0.89750723  0.66946916  0.56440976    -0.19600
H248        H  0.94066130  0.61936159  0.53184580     0.16100
F249        F  0.85922976  0.51819251  0.54058176    -0.23300
H250        H  0.81663652  0.56870071  0.57318778     0.17900
C251        C  0.80174370  0.66714138  0.57758247     0.25900
C252        C  0.77674719  0.68799760  0.60034469    -0.11800
C253        C  0.77773756  0.68472639  0.63985064    -0.25800
C254        C  0.80523297  0.66096029  0.65612210     0.36800
C255        C  0.82977911  0.63980298  0.63329316    -0.27500
F256        F  0.79981288  0.67043787  0.53958486    -0.19600
H257        H  0.75589634  0.70591646  0.58696362     0.16100
F258        F  0.80872581  0.65845076  0.69410999    -0.23300
H259        H  0.85028839  0.62120072  0.64629993     0.17900
C260        C  0.85357051  0.37224454  0.66758771    -0.27400
C261        C  0.88497878  0.35319117  0.65259669     0.06300
C262        C  0.88969417  0.31431395  0.65941029     0.25900
C263        C  0.86270133  0.29468154  0.68022399    -0.11800
C264        C  0.83048690  0.31343205  0.69425941    -0.25800
C265        C  0.82634553  0.35261508  0.68797319     0.36700
C266        C  0.91024349  0.37345871  0.62682779     0.06300
F267        F  0.91998866  0.29529971  0.64533814    -0.19600
H268        H  0.86653197  0.26452644  0.68476427     0.16100
F269        F  0.79478763  0.37140471  0.69932244    -0.23300
H270        H  0.84921947  0.40212209  0.66192196     0.17900
C271        C  0.90904383  0.36449971  0.58809485     0.25900
C272        C  0.92838551  0.38727206  0.56284530    -0.11800
C273        C  0.94912192  0.41953651  0.57573593    -0.25800
C274        C  0.95204618  0.42714830  0.61484626     0.36800
C275        C  0.93242744  0.40441524  0.64009403    -0.27500
F276        F  0.88710351  0.33521041  0.57446986    -0.19600
H277        H  0.92552982  0.38065185  0.53299554     0.16100
F278        F  0.97307972  0.45698916  0.62866574    -0.23300
H279        H  0.93370448  0.41151818  0.66993256     0.17900
C280        C  0.84564587  0.34249707  0.32481967    -0.27400
C281        C  0.87870707  0.35105594  0.30506668     0.06300
C282        C  0.88071714  0.34076683  0.26659180     0.25900
C283        C  0.85005114  0.32172658  0.24850902    -0.11800
C284        C  0.81706465  0.31284814  0.26857898    -0.25800
C285        C  0.81506589  0.32399579  0.30687510     0.36700
C286        C  0.90985051  0.37170389  0.32550833     0.06300
F287        F  0.91245048  0.34846014  0.24679067    -0.19600
H288        H  0.85218030  0.31357738  0.21903315     0.16100
F289        F  0.78297397  0.31824208  0.32681003    -0.23300
H290        H  0.84319447  0.35095364  0.35421256     0.17900
C291        C  0.92170888  0.40803008  0.31457792     0.25900
C292        C  0.94460744  0.43070852  0.33887212    -0.11800
C293        C  0.95582117  0.41755844  0.37445219    -0.25800
C294        C  0.94634842  0.37996220  0.38388510     0.36800
C295        C  0.92354816  0.35744698  0.35964322    -0.27500
F296        F  0.90855268  0.42283806  0.28198107    -0.19600
H297        H  0.95150848  0.45940802  0.33081534     0.16100
F298        F  0.95737750  0.36547591  0.41738509    -0.23300
H299        H  0.91491467  0.32943273  0.36840557     0.17900
C300        C  0.84759164  0.68381336  0.35533557    -0.27400
C301        C  0.84267600  0.64450078  0.36016578     0.06300
C302        C  0.80971449  0.62653294  0.34528803     0.25900
C303        C  0.78194693  0.64758511  0.32706574    -0.11800
C304        C  0.78670717  0.68685777  0.32206767    -0.25800
C305        C  0.82002854  0.70483755  0.33620173     0.36700
C306        C  0.87137539  0.62199568  0.38086146     0.06300
F307        F  0.80462100  0.58832483  0.34757266    -0.19600
H308        H  0.75655998  0.63295248  0.31673653     0.16100
F309        F  0.82647606  0.74239450  0.33067118    -0.23300
H310        H  0.87268289  0.69831410  0.36654986     0.17900
C311        C  0.91038953  0.62457694  0.37290801     0.25900
C312        C  0.93622938  0.60006980  0.39008000    -0.11800
C313        C  0.92350300  0.57226521  0.41483841    -0.25800
C314        C  0.88477847  0.57089623  0.42398525     0.36800
C315        C  0.85923423  0.59586547  0.40755656    -0.27500
F316        F  0.92328127  0.64916154  0.34701227    -0.19600
H317        H  0.96591777  0.60158961  0.38256225     0.16100
F318        F  0.87136986  0.54502306  0.44838075    -0.23300
H319        H  0.82955481  0.59409964  0.41504750     0.17900
C320        C  0.62834140  0.12246283  0.63496631    -0.27400
C321        C  0.66443730  0.12989631  0.62034150     0.06300
C322        C  0.67299684  0.11566812  0.58406128     0.25900
C323        C  0.64513187  0.09663311  0.56217060    -0.11800
C324        C  0.60836177  0.09084085  0.57610459    -0.25800
C325        C  0.60059529  0.10305224  0.61329304     0.36700
C326        C  0.69148640  0.15493905  0.64210229     0.06300
F327        F  0.70821708  0.12031198  0.56967889    -0.19600
H328        H  0.65230285  0.08677377  0.53397083     0.16100
F329        F  0.56578529  0.09771255  0.62834126    -0.23300
H330        H  0.62102991  0.13310116  0.66287192     0.17900
C331        C  0.70803074  0.18678551  0.62532322     0.25900
C332        C  0.72926861  0.21309507  0.64707170    -0.11800
C333        C  0.73454647  0.20849161  0.68604767    -0.25800
C334        C  0.71926650  0.17584137  0.70260312     0.36800
C335        C  0.69788965  0.14945474  0.68078857    -0.27500
F336        F  0.70151402  0.19405708  0.58841770    -0.19600
H337        H  0.74002591  0.23821578  0.63358587     0.16100
F338        F  0.72473054  0.16951085  0.73984505    -0.23300
H339        H  0.68565718  0.12501367  0.69428266     0.17900
C340        C  0.42253399  0.17637265  0.55512749    -0.27400
C341        C  0.39828561  0.16238893  0.58280915     0.06300
C342        C  0.39805669  0.12333041  0.59009939     0.25900
C343        C  0.42261427  0.09895983  0.57090217    -0.11800
C344        C  0.44813784  0.11311161  0.54442832    -0.25800
C345        C  0.44738767  0.15197804  0.53606417     0.36700
C346        C  0.37538182  0.18890118  0.60591767     0.06300
F347        F  0.37574235  0.10909550  0.61737109    -0.19600
H348        H  0.42282519  0.06918216  0.57805497     0.16100
F349        F  0.47077176  0.16639731  0.50979033    -0.23300
H350        H  0.42270440  0.20637654  0.54885935     0.17900
C351        C  0.39315830  0.21921521  0.62587025     0.25900
C352        C  0.37190879  0.24356604  0.64870159    -0.11800
C353        C  0.33255000  0.23812958  0.65239475    -0.25800
C354        C  0.31471330  0.20758990  0.63250367     0.36800
C355        C  0.33607955  0.18320646  0.60949435    -0.27500
F356        F  0.43130195  0.22468496  0.62404760    -0.19600
H357        H  0.38633983  0.26709168  0.66333170     0.16100
F358        F  0.27692970  0.20077351  0.63594315    -0.23300
H359        H  0.32195706  0.15976069  0.59444134     0.17900
C360        C  0.34596432  0.14786366  0.31233506    -0.27400
C361        C  0.38161588  0.15804706  0.32793010     0.06300
C362        C  0.39636061  0.19462836  0.32224251     0.25900
C363        C  0.37541664  0.22090813  0.30203773    -0.11800
C364        C  0.33927030  0.21135346  0.28733386    -0.25800
C365        C  0.32463510  0.17452382  0.29243226     0.36700
C366        C  0.40359504  0.13103237  0.35057624     0.06300
F367        F  0.43108800  0.20494751  0.33634303    -0.19600
H368        H  0.38704154  0.24919641  0.29868329     0.16100
F369        F  0.28995548  0.16440631  0.27813918    -0.23300
H370        H  0.33441360  0.11966901  0.31631200     0.17900
C371        C  0.41329288  0.14025498  0.38821087     0.25900
C372        C  0.43810548  0.11720822  0.40824528    -0.11800
C373        C  0.45400628  0.08470174  0.39103235    -0.25800
C374        C  0.44287770  0.07458766  0.35374794     0.36800
C375        C  0.41769605  0.09758860  0.33383397    -0.27500
F376        F  0.39946888  0.17216078  0.40525859    -0.19600
H377        H  0.44586866  0.12564916  0.43689266     0.16100
F378        F  0.45706752  0.04320499  0.33607906    -0.23300
H379        H  0.41044238  0.09017403  0.30480864     0.17900
C380        C  0.70441709  0.17174768  0.32449760    -0.27400
C381        C  0.66589456  0.17962697  0.33044660     0.06300
C382        C  0.64850877  0.20864900  0.30993590     0.25900
C383        C  0.66956437  0.22988975  0.28471264    -0.11800
C384        C  0.70837176  0.22268378  0.27928173    -0.25800
C385        C  0.72552577  0.19296063  0.29916425     0.36700
C386        C  0.64399844  0.15811113  0.35841667     0.06300
F387        F  0.61107175  0.21642967  0.31423610    -0.19600
H388        H  0.65565043  0.25285029  0.27020866     0.16100
F389        F  0.76265879  0.18434954  0.29411176    -0.23300
H390        H  0.71839000  0.14953349  0.34006420     0.17900
C391        C  0.64274773  0.11809982  0.35720999     0.25900
C392        C  0.62008403  0.09839205  0.38243526    -0.11800
C393        C  0.59852652  0.11814599  0.40953255    -0.25800
C394        C  0.60093686  0.15823109  0.41149295     0.36800
C395        C  0.62339047  0.17781936  0.38613903    -0.27500
F396        F  0.66224999  0.09812635  0.33070583    -0.19600
H397        H  0.61893081  0.06756124  0.38028646     0.16100
F398        F  0.58095772  0.17874105  0.43724844    -0.23300
H399        H  0.62448133  0.20866886  0.38797847     0.17900
C400        C  0.41775001  0.88741868  0.58877174    -0.27400
C401        C  0.42535622  0.85003709  0.57650843     0.06300
C402        C  0.45280566  0.84373363  0.54864760     0.25900
C403        C  0.47392827  0.87422314  0.53519563    -0.11800
C404        C  0.46735252  0.91142221  0.54867443    -0.25800
C405        C  0.43836084  0.91792834  0.57490796     0.36700
C406        C  0.40582203  0.81799701  0.59451049     0.06300
F407        F  0.45922121  0.80815331  0.53453415    -0.19600
H408        H  0.49556279  0.86877657  0.51438136     0.16100
F409        F  0.43130612  0.95348504  0.58878721    -0.23300
H410        H  0.39675124  0.89288379  0.61020682     0.17900
C411        C  0.42674472  0.78805477  0.60993320     0.25900
C412        C  0.40823127  0.75913002  0.62889346    -0.11800
C413        C  0.36864851  0.75973058  0.63325979    -0.25800
C414        C  0.34777002  0.78994795  0.61814278     0.36800
C415        C  0.36627089  0.81867536  0.59886781    -0.27500
F416        F  0.46521828  0.78747196  0.60791239    -0.19600
H417        H  0.42492167  0.73610629  0.64011988     0.16100
F418        F  0.30965599  0.79235182  0.62292112    -0.23300
H419        H  0.34970675  0.84176854  0.58759400     0.17900
C420        C  0.61457147  0.91775168  0.64770190    -0.27400
C421        C  0.65079094  0.90742402  0.63514933     0.06300
C422        C  0.66773193  0.92842562  0.60661395     0.25900
C423        C  0.64687806  0.95581283  0.58767170    -0.11800
C424        C  0.60877237  0.96265239  0.59683461    -0.25800
C425        C  0.59366952  0.94539217  0.62887139     0.36700
C426        C  0.66766222  0.87096817  0.64666569     0.06300
F427        F  0.70342757  0.92026855  0.59505665    -0.19600
H428        H  0.65962030  0.96940112  0.56384139     0.16100
F429        F  0.55746929  0.95219547  0.63971922    -0.23300
H430        H  0.60115105  0.90214681  0.66987576     0.17900
C431        C  0.67269424  0.86183552  0.68469778     0.25900
C432        C  0.68702859  0.82619198  0.69425081    -0.11800
C433        C  0.69584694  0.79885038  0.66605887    -0.25800
C434        C  0.68995485  0.80796721  0.62804026     0.36800
C435        C  0.67633697  0.84368819  0.61859985    -0.27500
F436        F  0.66397748  0.88735908  0.71250456    -0.19600
H437        H  0.69120148  0.81995699  0.72370047     0.16100
F438        F  0.69553705  0.78180549  0.59993109    -0.23300
H439        H  0.67134889  0.84965495  0.58918565     0.17900
C440        C  0.64808376  0.84172077  0.32573282    -0.27400
C441        C  0.67381540  0.86996498  0.33861303     0.07700
C442        C  0.71298772  0.86282923  0.33694426     0.25900
C443        C  0.72600724  0.82799951  0.32236998    -0.11800
C444        C  0.70022030  0.79949989  0.30974428    -0.25800
C445        C  0.66097097  0.80674759  0.31177395     0.36700
C446        C  0.65892951  0.90464172  0.35750939     0.06300
F447        F  0.73858462  0.88946605  0.34948562    -0.19600
H448        H  0.75632777  0.82326161  0.32101095     0.16100
F449        F  0.63490987  0.77942765  0.30215450    -0.23300
H450        H  0.61776952  0.84617583  0.32799263     0.17900
C451        C  0.63014115  0.92607538  0.34044765     0.25900
C452        C  0.60973398  0.95268303  0.36179406    -0.11800
C453        C  0.61785615  0.95840340  0.40038571    -0.25800
C454        C  0.64923039  0.93958870  0.41641335     0.36800
C455        C  0.66939459  0.91288775  0.39507975    -0.27500
F456        F  0.62049756  0.91981787  0.30364822    -0.19600
H457        H  0.58621418  0.96724185  0.34860863     0.16100
F458        F  0.65851054  0.94435121  0.45349796    -0.23300
H459        H  0.69139687  0.89659981  0.40878516     0.17900
C460        C  0.40849953  0.89579833  0.39914280    -0.27400
C461        C  0.42343984  0.85936335  0.39260990     0.06300
C462        C  0.46058726  0.85166114  0.40482405     0.25900
C463        C  0.48277656  0.88023854  0.42243560    -0.11800
C464        C  0.46843624  0.91718751  0.42830653    -0.25800
C465        C  0.43059348  0.92447168  0.41710995     0.36700
C466        C  0.40082233  0.82951603  0.37223168     0.06300
F467        F  0.47581893  0.81673775  0.39857939    -0.19600
H468        H  0.51164892  0.87351700  0.43073797     0.16100
F469        F  0.41496489  0.95923873  0.42316731    -0.23300
H470        H  0.37970796  0.90203664  0.39016195     0.17900
C471        C  0.38659634  0.79806978  0.39132877     0.25900
C472        C  0.36738709  0.76871195  0.37144484    -0.11800
C473        C  0.36233753  0.76994048  0.33207877    -0.25800
C474        C  0.37631428  0.80180116  0.31308642     0.36800
C475        C  0.39522362  0.83133221  0.33310981    -0.27500
F476        F  0.39148195  0.79574105  0.42920271    -0.19600
H477        H  0.35706710  0.74452894  0.38679516     0.16100
F478        F  0.37121104  0.80470448  0.27529566    -0.23300
H479        H  0.40612507  0.85541441  0.31798285     0.17900
C480        C  0.67302015  0.40871037  0.07714207    -0.27400
C481        C  0.65865591  0.37215981  0.08342706     0.06300
C482        C  0.62325427  0.36139661  0.06766578     0.25900
C483        C  0.60155678  0.38765635  0.04784267    -0.11800
C484        C  0.61476022  0.42512949  0.04353626    -0.25800
C485        C  0.65137180  0.43507690  0.05742744     0.36700
C486        C  0.67755167  0.34809835  0.11153078     0.06300
F487        F  0.60908525  0.32590443  0.07277314    -0.19600
H488        H  0.57384884  0.37901346  0.03694750     0.16100
F489        F  0.66533569  0.47095747  0.05431583    -0.23300
H490        H  0.70004054  0.41758713  0.08953874     0.17900
C491        C  0.71463323  0.33443981  0.10656667     0.25900
C492        C  0.73294841  0.31496304  0.13563209    -0.11800
C493        C  0.71446140  0.30900773  0.16989771    -0.25800
C494        C  0.67726822  0.32259318  0.17450382     0.36800
C495        C  0.65904520  0.34169800  0.14550994    -0.27500
F496        F  0.73302892  0.34007035  0.07379117    -0.19600
H497        H  0.76159331  0.30479436  0.13157349     0.16100
F498        F  0.65923496  0.31921278  0.20783184    -0.23300
H499        H  0.63083254  0.35284657  0.15010260     0.17900
C500        C  0.64019252  0.62433552  0.09508620    -0.27400
C501        C  0.62747091  0.62482615  0.13244104     0.06300
C502        C  0.59434562  0.60428354  0.14105612     0.25900
C503        C  0.57562139  0.58216428  0.11326006    -0.11800
C504        C  0.58888502  0.58093523  0.07619907    -0.25800
C505        C  0.62101017  0.60272701  0.06709072     0.36700
C506        C  0.64913148  0.64617977  0.16234429     0.06300
F507        F  0.57987154  0.60581004  0.17629940    -0.19600
H508        H  0.55069815  0.56586618  0.12070754     0.16100
F509        F  0.63509100  0.60150859  0.03166713    -0.23300
H510        H  0.66564910  0.63983606  0.08780626     0.17900
C511        C  0.65849368  0.62891736  0.19656457     0.25900
C512        C  0.67784376  0.64951517  0.22498752    -0.11800
C513        C  0.68895858  0.68745823  0.21973044    -0.25800
C514        C  0.68066239  0.70446033  0.18516783     0.36800
C515        C  0.66089447  0.68392304  0.15674606    -0.27500
F516        F  0.64975563  0.59182885  0.20227140    -0.19600
H517        H  0.68410607  0.63576439  0.25131267     0.16100
F518        F  0.69239810  0.74053235  0.17858765    -0.23300
H519        H  0.65444582  0.69762442  0.13043981     0.17900
C520        C  0.37328436  0.61564157  0.18823753    -0.27400
C521        C  0.38751537  0.63790005  0.15924892     0.06300
C522        C  0.38681167  0.67778410  0.16360450     0.25900
C523        C  0.37144969  0.69487946  0.19612612    -0.11800
C524        C  0.35670117  0.67258451  0.22502229    -0.25800
C525        C  0.35840605  0.63262066  0.22089489     0.36700
C526        C  0.40306175  0.61891614  0.12487658     0.06300
F527        F  0.40006928  0.70016912  0.13600053    -0.19600
H528        H  0.37047668  0.72567321  0.19844387     0.16100
F529        F  0.34666111  0.60987511  0.24888775    -0.23300
H530        H  0.37419878  0.58484003  0.18574439     0.17900
C531        C  0.44158005  0.62281277  0.11562751     0.25900
C532        C  0.45675160  0.60131885  0.08566748    -0.11800
C533        C  0.43373218  0.57603299  0.06384762    -0.25800
C534        C  0.39477017  0.57348554  0.07216422     0.36800
C535        C  0.37981767  0.59444233  0.10258679    -0.27500
F536        F  0.46497454  0.64586110  0.13679978    -0.19600
H537        H  0.48686079  0.60376538  0.08012687     0.16100
F538        F  0.37150677  0.54910418  0.05238711    -0.23300
H539        H  0.35007624  0.59097972  0.10930570     0.17900
C540        C  0.40317674  0.38510336  0.09069333    -0.27400
C541        C  0.39961128  0.39476507  0.12911853     0.06300
C542        C  0.41896524  0.42690435  0.14402300     0.25900
C543        C  0.44236709  0.44832046  0.12110777    -0.11800
C544        C  0.44672336  0.43833887  0.08284231    -0.25800
C545        C  0.42653753  0.40675586  0.06758511     0.36700
C546        C  0.37811878  0.36985827  0.15431901     0.06300
F547        F  0.41517212  0.43755297  0.18080179    -0.19600
H548        H  0.45705434  0.47297968  0.13331423     0.16100
F549        F  0.43064864  0.39589143  0.03092451    -0.23300
H550        H  0.38872563  0.36012130  0.07889942     0.17900
C551        C  0.33888816  0.36359146  0.14934583     0.25900
C552        C  0.31930286  0.33993899  0.17382237    -0.11800
C553        C  0.33860540  0.32202759  0.20340730    -0.25800
C554        C  0.37789329  0.32881340  0.20843910     0.36800
C555        C  0.39728823  0.35243458  0.18407644    -0.27500
F556        F  0.31947114  0.38100958  0.12141298    -0.19600
H557        H  0.28903710  0.33540465  0.16954111     0.16100
F558        F  0.39743973  0.31360209  0.23760375    -0.23300
H559        H  0.42752432  0.35721083  0.18844572     0.17900
C560        C  0.68354462  0.63973614  0.79675037    -0.27400
C561        C  0.64368098  0.63990002  0.79749592     0.06300
C562        C  0.62355141  0.66269797  0.77232033     0.25900
C563        C  0.64300796  0.68384309  0.74579057    -0.11800
C564        C  0.68289751  0.68296715  0.74419892    -0.25800
C565        C  0.70309400  0.66128103  0.77052643     0.36700
C566        C  0.62317675  0.61506604  0.82350215     0.06300
F567        F  0.58499985  0.66322951  0.77236740    -0.19600
H568        H  0.62677694  0.70008364  0.72574162     0.16100
F569        F  0.74166913  0.66119059  0.77113587    -0.23300
H570        H  0.69946601  0.62276444  0.81642525     0.17900
C571        C  0.62728622  0.57536918  0.82083579     0.25900
C572        C  0.60810811  0.55185359  0.84559509    -0.11800
C573        C  0.58523272  0.56765516  0.87392415    -0.25800
C574        C  0.58055972  0.60742252  0.87613607     0.36800
C575        C  0.59916826  0.63087668  0.85085282    -0.27500
F576        F  0.64997226  0.55938440  0.79430026    -0.19600
H577        H  0.61245046  0.52145128  0.84366452     0.16100
F578        F  0.55828702  0.62362170  0.90292835    -0.23300
H579        H  0.59555759  0.66133968  0.85310898     0.17900
C580        C  0.67370954  0.32592602  0.82423936    -0.27400
C581        C  0.69494235  0.34484476  0.85287411     0.06300
C582        C  0.73473801  0.34154317  0.85296949     0.25900
C583        C  0.75277622  0.32121066  0.82392620    -0.11800
C584        C  0.73160835  0.30385579  0.79412356    -0.25800
C585        C  0.69162288  0.30586741  0.79510521     0.36700
C586        C  0.67494655  0.36991914  0.88043630     0.06300
F587        F  0.75620145  0.35812078  0.88096486    -0.19600
H588        H  0.78348118  0.31955192  0.82443611     0.16100
F589        F  0.66967041  0.29076728  0.76670188    -0.23300
H590        H  0.64303965  0.32826253  0.82336601     0.17900
C591        C  0.68532544  0.40850577  0.88553502     0.25900
C592        C  0.66190696  0.43352995  0.90575130    -0.11800
C593        C  0.62758185  0.42069235  0.92097838    -0.25800
C594        C  0.61868797  0.38152820  0.91814783     0.36800
C595        C  0.64211980  0.35656274  0.89803744    -0.27500
F596        F  0.71638396  0.42277821  0.86840683    -0.19600
H597        H  0.66954285  0.46341186  0.90746552     0.16100
F598        F  0.58651652  0.36745195  0.93342464    -0.23300
H599        H  0.63379111  0.32697566  0.89488121     0.17900
C600        C  0.37176522  0.41440220  0.87585884    -0.27400
C601        C  0.38553503  0.37967479  0.86135424     0.06300
C602        C  0.41967087  0.36538613  0.87626880     0.25900
C603        C  0.44033429  0.38634467  0.90371711    -0.11800
C604        C  0.42759899  0.42207343  0.91690582    -0.25800
C605        C  0.39241921  0.43541933  0.90335199     0.36700
C606        C  0.36578968  0.36005672  0.82889342     0.06300
F607        F  0.43348186  0.33146009  0.86376109    -0.19600
H608        H  0.46717839  0.37515065  0.91360819     0.16100
F609        F  0.37888918  0.46974590  0.91495195    -0.23300
H610        H  0.34576529  0.42623460  0.86458263     0.17900
C611        C  0.32625374  0.35365308  0.82861662     0.25900
C612        C  0.30810539  0.33664542  0.79701877    -0.11800
C613        C  0.32888674  0.32581967  0.76500623    -0.25800
C614        C  0.36846725  0.33244907  0.76532707     0.36800
C615        C  0.38653239  0.34920234  0.79693472    -0.27500
F616        F  0.30523269  0.36340978  0.85906599    -0.19600
H617        H  0.27765893  0.33172888  0.79767183     0.16100
F618        F  0.38960974  0.32433039  0.73449240    -0.23300
H619        H  0.41686178  0.35476391  0.79597769     0.17900
C620        C  0.44956457  0.58098158  0.81925007    -0.27400
C621        C  0.42536383  0.61117432  0.82861574     0.06300
C622        C  0.41997892  0.62064031  0.86699379     0.25900
C623        C  0.43782127  0.59949256  0.89523823    -0.11800
C624        C  0.46121940  0.56856841  0.88564649    -0.25800
C625        C  0.46756127  0.56020852  0.84716864     0.36700
C626        C  0.40561108  0.63167576  0.79786314     0.06300
F627        F  0.39760497  0.65033630  0.87717584    -0.19600
H628        H  0.43250021  0.60664049  0.92451108     0.16100
F629        F  0.49085484  0.53148910  0.83621113    -0.23300
H630        H  0.45397582  0.57278265  0.79006047     0.17900
C631        C  0.42572266  0.64321512  0.76604347     0.25900
C632        C  0.40671024  0.65964002  0.73581882    -0.11800
C633        C  0.36724464  0.66528859  0.73651002    -0.25800
C634        C  0.34707035  0.65430680  0.76852456     0.36800
C635        C  0.36614525  0.63762406  0.79884904    -0.27500
F636        F  0.46393050  0.63875637  0.76413242    -0.19600
H637        H  0.42292446  0.66750819  0.71148719     0.16100
F638        F  0.30908946  0.66015136  0.77078917    -0.23300
H639        H  0.34993481  0.62861457  0.82275645     0.17900
loop_ 
_geom_bond_atom_site_label_1 
_geom_bond_atom_site_label_2 
_geom_bond_distance 
_geom_bond_site_symmetry_2 
_ccdc_geom_bond_type 
O1            C9   1.276       .  A
O1          Co21   2.008       .  S
O2           C10   1.262       .  A
O2          Co22   1.995       .  S
O3           C11   1.272       .  A
O3          Co23   1.904   1_554  S
O4           C12   1.261       .  A
O4          Co24   1.958       .  S
O5           C11   1.297       .  A
O5          Co22   2.110       .  S
O6           C12   1.278       .  A
O6          Co21   2.035       .  S
O7           C10   1.259       .  A
O7          Co24   1.976   1_554  S
O8            C9   1.275       .  A
O8          Co23   1.990       .  S
C9          C624   1.486       .  S
C10         C504   1.473       .  S
C11         C533   1.490       .  S
C12         C573   1.476       .  S
O13          C26   1.261       .  A
O13         Co21   1.964       .  S
O14          C27   1.263       .  A
O14         Co22   1.882       .  S
O15          C28   1.268       .  A
O15         Co23   2.016       .  S
O16          C29   1.278       .  A
O16         Co24   2.021   1_554  S
O17          C29   1.272       .  A
O17         Co22   1.975       .  S
O18          C28   1.261       .  A
O18         Co21   1.975       .  S
O19          C26   1.274       .  A
O19         Co24   2.030       .  S
O20          C27   1.298       .  A
O20         Co23   2.123   1_554  S
Co21         O25   2.013       .  S
Co22         O25   1.983   1_554  S
Co23         O25   2.018       .  S
Co24         O25   2.035       .  S
C26         C593   1.486       .  S
C27         C544   1.477       .  S
C28         C604   1.489       .  S
C29         C484   1.483       .  S
O30          C38   1.257       .  A
O30         Co50   1.969       .  S
O31          C39   1.269       .  A
O31         Co51   1.965       .  S
O32          C40   1.297       .  A
O32         Co52   2.116       .  S
O33          C41   1.271       .  A
O33         Co53   2.018   1_565  S
O34          C40   1.263       .  A
O34         Co51   1.887       .  S
O35          C41   1.261       .  A
O35         Co50   1.965       .  S
O36          C39   1.280       .  A
O36         Co53   2.030       .  S
O37          C38   1.266       .  A
O37         Co52   2.007   1_565  S
C38         C453   1.480       .  S
C39         C324   1.485       .  S
C40         C393   1.484       .  S
C41         C424   1.481       .  S
O42          C55   1.275       .  A
O42         Co50   2.020       .  S
O43          C56   1.298       .  A
O43         Co51   2.107       .  S
O44          C57   1.270       .  A
O44         Co52   1.977   1_565  S
O45          C58   1.255       .  A
O45         Co53   1.966       .  S
O46          C58   1.263       .  A
O46         Co51   2.005       .  S
O47          C57   1.279       .  A
O47         Co50   2.025       .  S
O48          C55   1.263       .  A
O48         Co53   1.955   1_565  S
O49          C56   1.268       .  A
O49         Co52   1.888       .  S
Co50         O54   2.008   1_565  S
Co51         O54   1.989       .  S
Co52         O54   2.000       .  S
Co53         O54   2.026       .  S
C55         C404   1.471       .  S
C56         C373   1.481       .  S
C57         C464   1.490       .  S
C58         C344   1.475       .  S
O59          C67   1.261       .  A
O59         Co79   1.978       .  S
O60          C68   1.271       .  A
O60         Co80   1.972       .  S
O61          C69   1.296       .  A
O61         Co81   2.117       .  S
O62          C70   1.274       .  A
O62         Co82   2.023   1_655  S
O63          C69   1.262       .  A
O63         Co80   1.883       .  S
O64          C70   1.263       .  A
O64         Co79   1.964       .  S
O65          C68   1.279       .  A
O65         Co82   2.021       .  S
O66          C67   1.266       .  A
O66         Co81   2.009   1_655  S
C67         C293   1.485       .  S
C68         C173   1.485       .  S
C69         C224   1.477       .  S
C70         C273   1.484       .  S
O71          C84   1.277       .  A
O71         Co79   2.031       .  S
O72          C85   1.294       .  A
O72         Co80   2.104       .  S
O73          C86   1.270       .  A
O73         Co81   1.970   1_655  S
O74          C87   1.261       .  A
O74         Co82   1.986       .  S
O75          C87   1.260       .  A
O75         Co80   1.982       .  S
O76          C86   1.278       .  A
O76         Co79   2.015       .  S
O77          C84   1.264       .  A
O77         Co82   1.965   1_655  S
O78          C85   1.269       .  A
O78         Co81   1.906       .  S
Co79         O83   2.013   1_655  S
Co80         O83   1.978       .  S
Co81         O83   2.014       .  S
Co82         O83   2.030       .  S
C84         C244   1.487       .  S
C85         C204   1.485       .  S
C86         C313   1.476       .  S
C87         C184   1.472       .  S
C88         C284   1.486       .  S
C88          C89   1.406       .  A
C88          C93   1.405       .  A
C89          C90   1.406       .  A
C89          H94   1.084       .  S
C90         C493   1.483       .  S
C90          C91   1.406       .  A
C91          C92   1.404       .  A
C91          H95   1.084       .  S
C92         C384   1.489       .  S
C92          C93   1.402       .  A
C93          H96   1.083       .  S
C97         C304   1.486       .  S
C97          C98   1.406       .  A
C97         C102   1.402       .  A
C98          C99   1.409       .  A
C98         H103   1.083       .  S
C99         C444   1.488       .  S
C99         C100   1.408       .  A
C100        C101   1.402       .  A
C100        H104   1.082       .  S
C101        C513   1.481       .  S
C101        C102   1.399       .  A
C102        H105   1.084       .  S
C106        C584   1.495       .  S
C106        C107   1.410       .  A
C106        C111   1.408       .  A
C107        C108   1.408       .  A
C107        H112   1.081       .  S
C108        C333   1.490       .  S
C108        C109   1.404       .  A
C109        C110   1.402       .  A
C109        H113   1.083       .  S
C110        C264   1.485       .  S
C110        C111   1.405       .  A
C111        H114   1.083       .  S
C115        C473   1.492       .  S
C115        C116   1.411       .  A
C115        C120   1.407       .  A
C116        C117   1.410       .  A
C116        H121   1.083       .  S
C117        C524   1.496       .  S
C117        C118   1.409       .  A
C118        C119   1.404       .  A
C118        H122   1.083       .  S
C119        C213   1.483       .  S
C119        C120   1.402       .  A
C120        H123   1.084       .  S
C124        C633   1.488       .  S
C124        C125   1.406       .  A
C124        C129   1.408       .  A
C125        C126   1.403       .  A
C125        H130   1.084       .  S
C126        C413   1.481       .  S
C126        C127   1.398       .  A
C127        C128   1.400       .  A
C127        H131   1.084       .  S
C128        C193   1.481       .  S
C128        C129   1.408       .  A
C129        H132   1.083       .  S
C133        C613   1.491       .  S
C133        C134   1.404       .  A
C133        C138   1.407       .  A
C134        C135   1.404       .  A
C134        H139   1.084       .  S
C135        C353   1.484       .  S
C135        C136   1.402       .  A
C136        C137   1.404       .  A
C136        H140   1.084       .  S
C137        C164   1.485       .  S
C137        C138   1.408       .  A
C138        H141   1.083       .  S
C142        C564   1.485       .  S
C142        C143   1.403       .  A
C142        C147   1.405       .  A
C143        C144   1.404       .  A
C143        H148   1.084       .  S
C144        C433   1.488       .  S
C144        C145   1.408       .  A
C145        C146   1.406       .  A
C145        H149   1.083       .  S
C146        C253   1.492       .  S
C146        C147   1.407       .  A
C147        H150   1.083       .  S
C151        C364   1.478       .  S
C151        C152   1.402       .  A
C151        C156   1.401       .  A
C152        C153   1.408       .  A
C152        H157   1.082       .  S
C153        C233   1.491       .  S
C153        C154   1.410       .  A
C154        C155   1.405       .  A
C154        H158   1.083       .  S
C155        C553   1.487       .  S
C155        C156   1.402       .  A
C156        H159   1.084       .  S
C160        C161   1.404       .  A
C160        C165   1.397       .  A
C160        H170   1.085       .  S
C161        C166   1.482       .  S
C161        C162   1.405       .  A
C162        C163   1.400       .  A
C162        F167   1.357       .  S
C163        C164   1.407       .  A
C163        H168   1.085       .  S
C164        C165   1.407       .  A
C165        F169   1.357       .  S
C166        C171   1.404       .  A
C166        C175   1.404       .  A
C171        C172   1.396       .  A
C171        F176   1.358       .  S
C172        C173   1.408       .  A
C172        H177   1.084       .  S
C173        C174   1.410       .  A
C174        C175   1.400       .  A
C174        F178   1.357       .  S
C175        H179   1.085       .  S
C180        C181   1.403       .  A
C180        C185   1.393       .  A
C180        H190   1.083       .  S
C181        C186   1.479       .  S
C181        C182   1.407       .  A
C182        C183   1.398       .  A
C182        F187   1.357       .  S
C183        C184   1.404       .  A
C183        H188   1.083       .  S
C184        C185   1.407       .  A
C185        F189   1.358       .  S
C186        C191   1.408       .  A
C186        C195   1.402       .  A
C191        C192   1.396       .  A
C191        F196   1.358       .  S
C192        C193   1.403       .  A
C192        H197   1.084       .  S
C193        C194   1.410       .  A
C194        C195   1.396       .  A
C194        F198   1.358       .  S
C195        H199   1.083       .  S
C200        C201   1.408       .  A
C200        C205   1.402       .  A
C200        H210   1.084       .  S
C201        C206   1.495       .  S
C201        C202   1.409       .  A
C202        C203   1.400       .  A
C202        F207   1.357       .  S
C203        C204   1.407       .  A
C203        H208   1.085       .  S
C204        C205   1.407       .  A
C205        F209   1.357       .  S
C206        C211   1.412       .  A
C206        C215   1.408       .  A
C211        C212   1.401       .  A
C211        F216   1.357       .  S
C212        C213   1.403       .  A
C212        H217   1.083       .  S
C213        C214   1.405       .  A
C214        C215   1.402       .  A
C214        F218   1.357       .  S
C215        H219   1.083       .  S
C220        C221   1.400       .  A
C220        C225   1.393       .  A
C220        H230   1.084       .  S
C221        C226   1.475       .  S
C221        C222   1.405       .  A
C222        C223   1.403       .  A
C222        F227   1.357       .  S
C223        C224   1.406       .  A
C223        H228   1.084       .  S
C224        C225   1.408       .  A
C225        F229   1.358       .  S
C226        C231   1.403       .  A
C226        C235   1.401       .  A
C231        C232   1.400       .  A
C231        F236   1.357       .  S
C232        C233   1.409       .  A
C232        H237   1.082       .  S
C233        C234   1.412       .  A
C234        C235   1.396       .  A
C234        F238   1.357       .  S
C235        H239   1.082       .  S
C240        C241   1.402       .  A
C240        C245   1.401       .  A
C240        H250   1.083       .  S
C241        C246   1.477       .  S
C241        C242   1.402       .  A
C242        C243   1.399       .  A
C242        F247   1.357       .  S
C243        C244   1.409       .  A
C243        H248   1.083       .  S
C244        C245   1.410       .  A
C245        F249   1.357       .  S
C246        C251   1.402       .  A
C246        C255   1.401       .  A
C251        C252   1.402       .  A
C251        F256   1.357       .  S
C252        C253   1.410       .  A
C252        H257   1.083       .  S
C253        C254   1.410       .  A
C254        C255   1.398       .  A
C254        F258   1.357       .  S
C255        H259   1.084       .  S
C260        C261   1.401       .  A
C260        C265   1.397       .  A
C260        H270   1.085       .  S
C261        C266   1.477       .  S
C261        C262   1.404       .  A
C262        C263   1.400       .  A
C262        F267   1.357       .  S
C263        C264   1.407       .  A
C263        H268   1.085       .  S
C264        C265   1.409       .  A
C265        F269   1.357       .  S
C266        C271   1.403       .  A
C266        C275   1.403       .  A
C271        C272   1.397       .  A
C271        F276   1.358       .  S
C272        C273   1.408       .  A
C272        H277   1.082       .  S
C273        C274   1.410       .  A
C274        C275   1.401       .  A
C274        F278   1.357       .  S
C275        H279   1.082       .  S
C280        C281   1.402       .  A
C280        C285   1.392       .  A
C280        H290   1.083       .  S
C281        C286   1.482       .  S
C281        C282   1.407       .  A
C282        C283   1.405       .  A
C282        F287   1.357       .  S
C283        C284   1.408       .  A
C283        H288   1.082       .  S
C284        C285   1.408       .  A
C285        F289   1.358       .  S
C286        C291   1.406       .  A
C286        C295   1.403       .  A
C291        C292   1.402       .  A
C291        F296   1.357       .  S
C292        C293   1.408       .  A
C292        H297   1.082       .  S
C293        C294   1.410       .  A
C294        C295   1.396       .  A
C294        F298   1.358       .  S
C295        H299   1.082       .  S
C300        C301   1.406       .  A
C300        C305   1.402       .  A
C300        H310   1.083       .  S
C301        C306   1.485       .  S
C301        C302   1.407       .  A
C302        C303   1.392       .  A
C302        F307   1.358       .  S
C303        C304   1.405       .  A
C303        H308   1.083       .  S
C304        C305   1.409       .  A
C305        F309   1.357       .  S
C306        C311   1.409       .  A
C306        C315   1.404       .  A
C311        C312   1.401       .  A
C311        F316   1.357       .  S
C312        C313   1.405       .  A
C312        H317   1.083       .  S
C313        C314   1.406       .  A
C314        C315   1.393       .  A
C314        F318   1.358       .  S
C315        H319   1.083       .  S
C320        C321   1.404       .  A
C320        C325   1.398       .  A
C320        H330   1.085       .  S
C321        C326   1.487       .  S
C321        C322   1.407       .  A
C322        C323   1.399       .  A
C322        F327   1.358       .  S
C323        C324   1.407       .  A
C323        H328   1.085       .  S
C324        C325   1.409       .  A
C325        F329   1.357       .  S
C326        C331   1.407       .  A
C326        C335   1.407       .  A
C331        C332   1.396       .  A
C331        F336   1.357       .  S
C332        C333   1.407       .  A
C332        H337   1.083       .  S
C333        C334   1.409       .  A
C334        C335   1.402       .  A
C334        F338   1.357       .  S
C335        H339   1.083       .  S
C340        C341   1.406       .  A
C340        C345   1.399       .  A
C340        H350   1.083       .  S
C341        C346   1.478       .  S
C341        C342   1.403       .  A
C342        C343   1.394       .  A
C342        F347   1.358       .  S
C343        C344   1.406       .  A
C343        H348   1.083       .  S
C344        C345   1.405       .  A
C345        F349   1.357       .  S
C346        C351   1.403       .  A
C346        C355   1.404       .  A
C351        C352   1.393       .  A
C351        F356   1.358       .  S
C352        C353   1.406       .  A
C352        H357   1.085       .  S
C353        C354   1.409       .  A
C354        C355   1.400       .  A
C354        F358   1.357       .  S
C355        H359   1.085       .  S
C360        C361   1.405       .  A
C360        C365   1.403       .  A
C360        H370   1.082       .  S
C361        C366   1.475       .  S
C361        C362   1.403       .  A
C362        C363   1.392       .  A
C362        F367   1.358       .  S
C363        C364   1.404       .  A
C363        H368   1.082       .  S
C364        C365   1.406       .  A
C365        F369   1.357       .  S
C366        C371   1.404       .  A
C366        C375   1.401       .  A
C371        C372   1.395       .  A
C371        F376   1.358       .  S
C372        C373   1.406       .  A
C372        H377   1.083       .  S
C373        C374   1.411       .  A
C374        C375   1.400       .  A
C374        F378   1.357       .  S
C375        H379   1.083       .  S
C380        C381   1.404       .  A
C380        C385   1.400       .  A
C380        H390   1.084       .  S
C381        C386   1.484       .  S
C381        C382   1.406       .  A
C382        C383   1.397       .  A
C382        F387   1.358       .  S
C383        C384   1.406       .  A
C383        H388   1.084       .  S
C384        C385   1.410       .  A
C385        F389   1.357       .  S
C386        C391   1.406       .  A
C386        C395   1.403       .  A
C391        C392   1.400       .  A
C391        F396   1.357       .  S
C392        C393   1.407       .  A
C392        H397   1.085       .  S
C393        C394   1.411       .  A
C394        C395   1.397       .  A
C394        F398   1.358       .  S
C395        H399   1.085       .  S
C400        C401   1.403       .  A
C400        C405   1.394       .  A
C400        H410   1.083       .  S
C401        C406   1.478       .  S
C401        C402   1.407       .  A
C402        C403   1.397       .  A
C402        F407   1.357       .  S
C403        C404   1.403       .  A
C403        H408   1.083       .  S
C404        C405   1.407       .  A
C405        F409   1.358       .  S
C406        C411   1.406       .  A
C406        C415   1.403       .  A
C411        C412   1.395       .  A
C411        F416   1.357       .  S
C412        C413   1.404       .  A
C412        H417   1.084       .  S
C413        C414   1.409       .  A
C414        C415   1.396       .  A
C414        F418   1.358       .  S
C415        H419   1.084       .  S
C420        C421   1.404       .  A
C420        C425   1.400       .  A
C420        H430   1.082       .  S
C421        C426   1.480       .  S
C421        C422   1.405       .  A
C422        C423   1.395       .  A
C422        F427   1.358       .  S
C423        C424   1.406       .  A
C423        H428   1.083       .  S
C424        C425   1.410       .  A
C425        F429   1.358       .  S
C426        C431   1.404       .  A
C426        C435   1.404       .  A
C431        C432   1.401       .  A
C431        F436   1.357       .  S
C432        C433   1.410       .  A
C432        H437   1.081       .  S
C433        C434   1.407       .  A
C434        C435   1.394       .  A
C434        F438   1.358       .  S
C435        H439   1.082       .  S
C440        C441   1.403       .  A
C440        C445   1.395       .  A
C440        H450   1.083       .  S
C441        C446   1.480       .  S
C441        C442   1.405       .  A
C442        C443   1.400       .  A
C442        F447   1.357       .  S
C443        C444   1.408       .  A
C443        H448   1.083       .  S
C444        C445   1.409       .  A
C445        F449   1.357       .  S
C446        C451   1.406       .  A
C446        C455   1.401       .  A
C451        C452   1.398       .  A
C451        F456   1.357       .  S
C452        C453   1.405       .  A
C452        H457   1.083       .  S
C453        C454   1.411       .  A
C454        C455   1.396       .  A
C454        F458   1.358       .  S
C455        H459   1.083       .  S
C460        C461   1.403       .  A
C460        C465   1.404       .  A
C460        H470   1.084       .  S
C461        C466   1.481       .  S
C461        C462   1.402       .  A
C462        C463   1.398       .  A
C462        F467   1.357       .  S
C463        C464   1.408       .  A
C463        H468   1.084       .  S
C464        C465   1.412       .  A
C465        F469   1.357       .  S
C466        C471   1.403       .  A
C466        C475   1.403       .  A
C471        C472   1.400       .  A
C471        F476   1.357       .  S
C472        C473   1.408       .  A
C472        H477   1.084       .  S
C473        C474   1.410       .  A
C474        C475   1.402       .  A
C474        F478   1.357       .  S
C475        H479   1.084       .  S
C480        C481   1.401       .  A
C480        C485   1.399       .  A
C480        H490   1.083       .  S
C481        C486   1.478       .  S
C481        C482   1.404       .  A
C482        C483   1.399       .  A
C482        F487   1.357       .  S
C483        C484   1.406       .  A
C483        H488   1.083       .  S
C484        C485   1.412       .  A
C485        F489   1.358       .  S
C486        C491   1.406       .  A
C486        C495   1.401       .  A
C491        C492   1.404       .  A
C491        F496   1.357       .  S
C492        C493   1.407       .  A
C492        H497   1.083       .  S
C493        C494   1.407       .  A
C494        C495   1.394       .  A
C494        F498   1.358       .  S
C495        H499   1.083       .  S
C500        C501   1.405       .  A
C500        C505   1.399       .  A
C500        H510   1.083       .  S
C501        C506   1.484       .  S
C501        C502   1.408       .  A
C502        C503   1.396       .  A
C502        F507   1.357       .  S
C503        C504   1.402       .  A
C503        H508   1.084       .  S
C504        C505   1.407       .  A
C505        F509   1.358       .  S
C506        C511   1.407       .  A
C506        C515   1.406       .  A
C511        C512   1.394       .  A
C511        F516   1.358       .  S
C512        C513   1.405       .  A
C512        H517   1.083       .  S
C513        C514   1.406       .  A
C514        C515   1.400       .  A
C514        F518   1.357       .  S
C515        H519   1.083       .  S
C520        C521   1.403       .  A
C520        C525   1.401       .  A
C520        H530   1.085       .  S
C521        C526   1.489       .  S
C521        C522   1.407       .  A
C522        C523   1.405       .  A
C522        F527   1.357       .  S
C523        C524   1.408       .  A
C523        H528   1.084       .  S
C524        C525   1.410       .  A
C525        F529   1.357       .  S
C526        C531   1.406       .  A
C526        C535   1.405       .  A
C531        C532   1.403       .  A
C531        F536   1.357       .  S
C532        C533   1.409       .  A
C532        H537   1.084       .  S
C533        C534   1.410       .  A
C534        C535   1.403       .  A
C534        F538   1.357       .  S
C535        H539   1.084       .  S
C540        C541   1.405       .  A
C540        C545   1.403       .  A
C540        H550   1.084       .  S
C541        C546   1.479       .  S
C541        C542   1.403       .  A
C542        C543   1.395       .  A
C542        F547   1.358       .  S
C543        C544   1.405       .  A
C543        H548   1.084       .  S
C544        C545   1.407       .  A
C545        F549   1.357       .  S
C546        C551   1.405       .  A
C546        C555   1.401       .  A
C551        C552   1.402       .  A
C551        F556   1.357       .  S
C552        C553   1.407       .  A
C552        H557   1.084       .  S
C553        C554   1.410       .  A
C554        C555   1.395       .  A
C554        F558   1.358       .  S
C555        H559   1.085       .  S
C560        C561   1.404       .  A
C560        C565   1.399       .  A
C560        H570   1.083       .  S
C561        C566   1.478       .  S
C561        C562   1.403       .  A
C562        C563   1.397       .  A
C562        F567   1.357       .  S
C563        C564   1.407       .  A
C563        H568   1.083       .  S
C564        C565   1.408       .  A
C565        F569   1.358       .  S
C566        C571   1.405       .  A
C566        C575   1.403       .  A
C571        C572   1.398       .  A
C571        F576   1.357       .  S
C572        C573   1.403       .  A
C572        H577   1.081       .  S
C573        C574   1.409       .  A
C574        C575   1.399       .  A
C574        F578   1.358       .  S
C575        H579   1.080       .  S
C580        C581   1.404       .  A
C580        C585   1.398       .  A
C580        H590   1.083       .  S
C581        C586   1.488       .  S
C581        C582   1.406       .  A
C582        C583   1.402       .  A
C582        F587   1.357       .  S
C583        C584   1.409       .  A
C583        H588   1.083       .  S
C584        C585   1.411       .  A
C585        F589   1.357       .  S
C586        C591   1.409       .  A
C586        C595   1.404       .  A
C591        C592   1.402       .  A
C591        F596   1.357       .  S
C592        C593   1.406       .  A
C592        H597   1.082       .  S
C593        C594   1.410       .  A
C594        C595   1.399       .  A
C594        F598   1.358       .  S
C595        H599   1.081       .  S
C600        C601   1.405       .  A
C600        C605   1.401       .  A
C600        H610   1.084       .  S
C601        C606   1.489       .  S
C601        C602   1.407       .  A
C602        C603   1.399       .  A
C602        F607   1.358       .  S
C603        C604   1.408       .  A
C603        H608   1.083       .  S
C604        C605   1.410       .  A
C605        F609   1.357       .  S
C606        C611   1.408       .  A
C606        C615   1.404       .  A
C611        C612   1.402       .  A
C611        F616   1.357       .  S
C612        C613   1.406       .  A
C612        H617   1.085       .  S
C613        C614   1.411       .  A
C614        C615   1.397       .  A
C614        F618   1.358       .  S
C615        H619   1.085       .  S
C620        C621   1.402       .  A
C620        C625   1.393       .  A
C620        H630   1.082       .  S
C621        C626   1.489       .  S
C621        C622   1.410       .  A
C622        C623   1.406       .  A
C622        F627   1.357       .  S
C623        C624   1.407       .  A
C623        H628   1.082       .  S
C624        C625   1.411       .  A
C625        F629   1.358       .  S
C626        C631   1.408       .  A
C626        C635   1.407       .  A
C631        C632   1.396       .  A
C631        F636   1.358       .  S
C632        C633   1.405       .  A
C632        H637   1.082       .  S
C633        C634   1.409       .  A
C634        C635   1.403       .  A
C634        F638   1.357       .  S
C635        H639   1.082       .  S
