geometry optimzed in LAMMPS
_audit_creation_date              2020-12-01 
_audit_creation_method            'lammps2cif' 
_symmetry_space_group_name_H-M    'P1' 
_symmetry_Int_Tables_number       1 
_symmetry_cell_setting            triclinic 
loop_ 
_symmetry_equiv_pos_as_xyz 
  x,y,z 
_cell_length_a                    49.85979481 
_cell_length_b                    50.08333708177012 
_cell_length_c                    30.322295462260648 
_cell_angle_alpha                 90.17628756916062 
_cell_angle_beta                  89.5928847771147 
_cell_angle_gamma                 122.38239720359147 
loop_ 
_atom_site_label 
_atom_site_type_symbol 
_atom_site_fract_x 
_atom_site_fract_y 
_atom_site_fract_z 
_atom_site_charge 
O1          O  0.54274924  0.50970228  0.22569473    -0.74100
O2          O  0.50671945  0.53299134  0.31808946    -0.74200
O3          O  0.50681466  0.53525161  0.22872224    -0.74200
O4          O  0.54283920  0.50768144  0.31467792    -0.74300
O5          O  0.58666083  0.55598388  0.31588480    -0.74200
O6          O  0.55075028  0.58341196  0.23030792    -0.74200
O7          O  0.55062063  0.58116947  0.31969011    -0.74200
O8          O  0.58661461  0.55793848  0.22663442    -0.74200
Ni9        Ni  0.52319865  0.51969167  0.27173864     1.25400
Ni10       Ni  0.57019544  0.57135098  0.27316549     1.25400
C11         C  0.57057031  0.52985273  0.21087453     0.88000
C12         C  0.52283500  0.56080425  0.33458995     0.88000
C13         C  0.52317164  0.56383828  0.21471498     0.88000
C14         C  0.57061772  0.52739553  0.32971082     0.88200
C15         C  0.81977298  0.38705356  0.49426161     0.03400
C16         C  0.83624623  0.39101673  0.03134136    -0.12700
C17         C  0.86773228  0.39901638  0.03425530     0.00900
C18         C  0.88361213  0.40570257  0.49513536    -0.11300
C19         C  0.86849296  0.40189300  0.45484301     0.03400
C20         C  0.83652256  0.39259580  0.45442154    -0.10700
H21         H  0.82201128  0.38531793  0.06106856     0.09000
H22         H  0.90850576  0.41341933  0.49540069     0.06500
H23         H  0.82467966  0.38950676  0.42325698     0.06400
C24         C  0.62091301  0.45386539  0.52169849     0.03400
C25         C  0.61806131  0.46620547  0.48180059    -0.12700
C26         C  0.61112666  0.48982576  0.48151559     0.00900
C27         C  0.60762849  0.50161272  0.52167871    -0.11300
C28         C  0.61494945  0.49425831  0.05927836     0.03400
C29         C  0.62181178  0.47046553  0.05888528    -0.10700
H30         H  0.62082386  0.45707433  0.45078867     0.09000
H31         H  0.60077697  0.51882229  0.52170554     0.06500
H32         H  0.62423778  0.46105335  0.08969152     0.06400
C33         C  0.64711117  0.35528372  0.50479260     0.80500
N34         N  0.67808990  0.36454718  0.50328696    -0.77800
C35         C  0.68650722  0.34326089  0.49597323     0.82900
N36         N  0.66347129  0.31223884  0.49088230    -0.77700
C37         C  0.63224376  0.30250358  0.49277015     0.83000
N38         N  0.62427079  0.32425004  0.49960853    -0.79500
C39         C  0.53460301  0.16947841  0.48742869     0.03400
C40         C  0.52261973  0.15363943  0.44731310    -0.12700
C41         C  0.50188925  0.12068533  0.44648616     0.00900
C42         C  0.49377435  0.10373569  0.48617770    -0.11300
C43         C  0.50863786  0.12356204  0.02570987     0.03400
C44         C  0.53025006  0.15640798  0.02515128    -0.10700
H45         H  0.52988367  0.16696120  0.41675675     0.09000
H46         H  0.47950957  0.07813417  0.48549596     0.06500
H47         H  0.53868402  0.16906749  0.05605362     0.06400
O48         O  0.49144522  0.03658237  0.19262701    -0.74100
O49         O  0.46815324  0.97369424  0.28166619    -0.74200
O50         O  0.47065889  0.97457878  0.19256449    -0.74200
O51         O  0.48925016  0.03608899  0.28133512    -0.74300
O52         O  0.43935473  0.02433378  0.27924646    -0.74200
O53         O  0.42046426  0.96192672  0.19086645    -0.74200
O54         O  0.41833734  0.96214623  0.28009776    -0.74200
O55         O  0.44141479  0.02421788  0.18990876    -0.74200
Ni56       Ni  0.48163129  0.00564096  0.23718904     1.25400
Ni57       Ni  0.42808629  0.99270873  0.23494559     1.25400
C58         C  0.47024906  0.04063345  0.17626546     0.88000
C59         C  0.43940024  0.95762965  0.29572682     0.88000
C60         C  0.44261072  0.95830325  0.17674837     0.88000
C61         C  0.46755985  0.04056496  0.29471901     0.88200
O62         O  0.95923129  0.45754943  0.19889279    -0.74100
O63         O  0.02681138  0.49151139  0.28224865    -0.74200
O64         O  0.02323227  0.48826992  0.19365370    -0.74200
O65         O  0.96275917  0.46092385  0.28751351    -0.74300
O66         O  0.95963542  0.41487739  0.28978448    -0.74200
O67         O  0.01977363  0.44201068  0.19485071    -0.74200
O68         O  0.02370967  0.44549473  0.28387887    -0.74200
O69         O  0.95591837  0.41137627  0.20071594    -0.74200
Ni70       Ni  0.99311766  0.47618700  0.24052194     1.25400
Ni71       Ni  0.98962528  0.42676716  0.24243310     1.25400
C72         C  0.94665878  0.42897366  0.18568793     0.88000
C73         C  0.03653521  0.47417881  0.29679874     0.89200
C74         C  0.03150685  0.46976231  0.17875582     0.88000
C75         C  0.95118571  0.43339659  0.30421237     0.88200
C76         C  0.44172347  0.60956132  0.02625146     0.03400
C77         C  0.45271387  0.60454397  0.06593110    -0.12700
C78         C  0.47555039  0.59638263  0.06530047     0.00900
C79         C  0.48783111  0.59385322  0.02495785    -0.11300
C80         C  0.47432545  0.59238241  0.48595853     0.03400
C81         C  0.45171744  0.60078754  0.48345794    -0.10700
H82         H  0.44342859  0.60684775  0.09716357     0.09000
H83         H  0.50522276  0.58715375  0.02456530     0.06500
H84         H  0.44372082  0.60327429  0.45147215     0.06400
C85         C  0.35308856  0.65005263  0.01916637     0.80500
N86         N  0.36750107  0.68301268  0.50452030    -0.77800
C87         C  0.34821074  0.69398467  0.49744041     0.82900
N88         N  0.31638999  0.67301572  0.49394612    -0.77700
C89         C  0.30386742  0.64143884  0.49760746     0.83000
N90         N  0.32142381  0.62890405  0.01481808    -0.79500
C91         C  0.16661644  0.54645494  0.99193375     0.03400
C92         C  0.14807243  0.53417630  0.03037428    -0.12700
C93         C  0.11526731  0.51229375  0.02773664     0.00900
C94         C  0.10101354  0.50284719  0.98630300    -0.11300
C95         C  0.12117882  0.51820412  0.44380920     0.03400
C96         C  0.15377029  0.54086103  0.44627158    -0.10700
H97         H  0.15908920  0.54200018  0.06241438     0.09000
H98         H  0.07548391  0.48683210  0.98408473     0.06500
H99         H  0.16755380  0.55061977  0.41623377     0.06400
C100        C  0.39696531  0.82753236  0.48422279     0.03400
C101        C  0.40086048  0.84359917  0.44441143    -0.12700
C102        C  0.41012234  0.87545185  0.44499550     0.00900
C103        C  0.41547352  0.89108097  0.48540067    -0.11300
C104        C  0.41350489  0.87535876  0.02858691     0.03400
C105        C  0.39998245  0.84264370  0.02997501    -0.10700
H106        H  0.39650810  0.83135397  0.41322464     0.09000
H107        H  0.42277632  0.91573853  0.48598566     0.06500
H108        H  0.39551647  0.83082417  0.06153403     0.06400
C109        C  0.36165731  0.72839001  0.49272373    -0.05200
C110        C  0.34391063  0.73876663  0.47127184    -0.32600
C111        C  0.35570141  0.77103296  0.46679609     0.36600
C112        C  0.38543826  0.79356044  0.48455033    -0.05500
C113        C  0.39881229  0.78141922  0.01468493    -0.32500
C114        C  0.38780421  0.74935435  0.01904301     0.36500
H115        H  0.32072215  0.72185019  0.45793403     0.16900
O116        O  0.33721981  0.78028936  0.44726972    -0.60000
H117        H  0.42170359  0.79889226  0.02835435     0.16900
O118        O  0.40621264  0.74112702  0.04118871    -0.60100
H119        H  0.42240607  0.74376615  0.01941565     0.43900
H120        H  0.34011558  0.77907264  0.41509499     0.43900
C121        C  0.20118940  0.56977445  0.99529958    -0.05200
C122        C  0.21656488  0.60304031  0.46894171    -0.32600
C123        C  0.24921186  0.62551938  0.47138569     0.36600
C124        C  0.26684859  0.61543997  0.00253395    -0.05500
C125        C  0.25312332  0.58632079  0.02462427    -0.32500
C126        C  0.22056646  0.56373289  0.02154146     0.36500
H127        H  0.20159238  0.60859109  0.45056067     0.16900
O128        O  0.26148019  0.65361393  0.44928425    -0.60000
H129        H  0.26760588  0.58109449  0.04480212     0.16900
O130        O  0.20810134  0.53529493  0.04284583    -0.60100
H131        H  0.20762422  0.53995637  0.07455742     0.43900
H132        H  0.25791895  0.66719655  0.46918471     0.43900
C133        C  0.41806149  0.61871392  0.02698581    -0.05200
C134        C  0.42493546  0.64633091  0.04902603    -0.32600
C135        C  0.40378797  0.65664196  0.04749758     0.36600
C136        C  0.37495989  0.63882589  0.02439176    -0.05500
C137        C  0.36904547  0.61145436  0.49266671    -0.32500
C138        C  0.38947459  0.60043041  0.49537101     0.36500
H139        H  0.44714873  0.66038027  0.06652094     0.16900
O140        O  0.41110807  0.68366053  0.06959602    -0.60000
H141        H  0.34753439  0.59815757  0.47346874     0.16900
O142        O  0.38152946  0.57287530  0.47432333    -0.60100
H143        H  0.37104966  0.55617784  0.49718783     0.43900
H144        H  0.42898976  0.70123208  0.05283767     0.43900
C145        C  0.06216320  0.48698222  0.33004237    -0.05200
C146        C  0.06813488  0.46614991  0.35245556    -0.32600
C147        C  0.08913803  0.47664690  0.38787583     0.36600
C148        C  0.10473765  0.50839081  0.40122891    -0.05500
C149        C  0.10080144  0.52979957  0.37706572    -0.32500
C150        C  0.07955065  0.51933595  0.34181141     0.36500
H151        H  0.05548474  0.44130997  0.34385445     0.16900
O152        O  0.09308836  0.45539137  0.41068806    -0.60000
H153        H  0.11285992  0.55434687  0.38713345     0.16900
O154        O  0.07560612  0.54085752  0.31974069    -0.60100
H155        H  0.06075576  0.54357029  0.33828001     0.43900
H156        H  0.11269419  0.45772912  0.39827325     0.43900
C157        C  0.09541137  0.50079544  0.06808596    -0.05200
C158        C  0.09809428  0.52271647  0.09945178    -0.32600
C159        C  0.07776223  0.51285560  0.13600868     0.36600
C160        C  0.05452839  0.48051687  0.14199114    -0.05500
C161        C  0.05264593  0.45843066  0.11150782    -0.32500
C162        C  0.07278689  0.46835546  0.07468081     0.36500
H163        H  0.11541254  0.54772743  0.09493614     0.16900
O164        O  0.08123381  0.53495883  0.16616727    -0.60000
H165        H  0.03495381  0.43347293  0.11559257     0.16900
O166        O  0.06991292  0.44620468  0.04508722    -0.60100
H167        H  0.08633216  0.44181067  0.05370100     0.43900
H168        H  0.07027453  0.54471049  0.15311667     0.43900
C169        C  0.43589250  0.93553546  0.14101581    -0.05200
C170        C  0.40496485  0.90908385  0.13569972    -0.32600
C171        C  0.39768053  0.88826140  0.10039048     0.36600
C172        C  0.42134245  0.89417269  0.06933812    -0.05500
C173        C  0.45239481  0.92011706  0.07520159    -0.32500
C174        C  0.45981668  0.94069212  0.11070411     0.36500
H175        H  0.38629209  0.90472648  0.15867896     0.16900
O176        O  0.36698839  0.86340549  0.09490787    -0.60000
H177        H  0.47079619  0.92487562  0.05144560     0.16900
O178        O  0.49024211  0.96643638  0.11436711    -0.60100
H179        H  0.49043341  0.98357584  0.09777110     0.43900
H180        H  0.36458409  0.84659652  0.11486812     0.43900
C181        C  0.41490905  0.89312713  0.40381869    -0.05200
C182        C  0.43883812  0.89817316  0.37405345    -0.32600
C183        C  0.44691495  0.91883292  0.33826287     0.36600
C184        C  0.43040079  0.93417131  0.33138574    -0.05500
C185        C  0.40541897  0.92778795  0.36012827    -0.32500
C186        C  0.39778993  0.90764229  0.39622731     0.36500
H187        H  0.45215641  0.88709172  0.37961291     0.16900
O188        O  0.47070054  0.92358290  0.31001011    -0.60000
H189        H  0.39242411  0.93930495  0.35552239     0.16900
O190        O  0.37416753  0.90300473  0.42472790    -0.60100
H191        H  0.35477360  0.88337835  0.41441858     0.43900
H192        H  0.49074615  0.93930224  0.32489333     0.43900
C193        C  0.47517057  0.06409475  0.32958329    -0.05200
C194        C  0.45185475  0.05874958  0.36071865    -0.32600
C195        C  0.45983836  0.07801765  0.39805282     0.36600
C196        C  0.49145958  0.10332395  0.40418904    -0.05500
C197        C  0.51411341  0.11017157  0.37114628    -0.32500
C198        C  0.50621994  0.09072023  0.33415456     0.36500
H199        H  0.42771962  0.03869538  0.35728373     0.16900
O200        O  0.43666479  0.07206463  0.42835249    -0.60000
H201        H  0.53846102  0.12970823  0.37502405     0.16900
O202        O  0.52900159  0.09794113  0.30259590    -0.60100
H203        H  0.54253497  0.09084608  0.31498017     0.43900
H204        H  0.43052403  0.05168712  0.44245386     0.43900
C205        C  0.49874209  0.10559455  0.06758826    -0.05200
C206        C  0.46637541  0.08394006  0.07611776    -0.32600
C207        C  0.45656962  0.06337591  0.11223097     0.36600
C208        C  0.47937049  0.06417614  0.14053182    -0.05500
C209        C  0.51170781  0.08676822  0.13280717    -0.32500
C210        C  0.52144466  0.10741768  0.09684950     0.36500
H211        H  0.44865557  0.08232865  0.05385387     0.16900
O212        O  0.42472388  0.04189955  0.11845625    -0.60000
H213        H  0.52969779  0.08796716  0.15406109     0.16900
O214        O  0.55330014  0.12757324  0.08865358    -0.60100
H215        H  0.56034254  0.14541401  0.10946686     0.43900
H216        H  0.41992072  0.02314663  0.10079885     0.43900
C217        C  0.60701290  0.26842014  0.48943891    -0.05200
C218        C  0.58441438  0.26067875  0.01068617    -0.32600
C219        C  0.56130540  0.22826326  0.01081193     0.36600
C220        C  0.55884876  0.20357056  0.48743813    -0.05500
C221        C  0.58896011  0.21411975  0.46984056    -0.32500
C222        C  0.61305873  0.24616798  0.47105193     0.36500
H223        H  0.58083238  0.27617676  0.03143409     0.16900
O224        O  0.53465910  0.21729367  0.03653256    -0.60000
H225        H  0.59396208  0.19730246  0.45576567     0.16900
O226        O  0.64215888  0.25542727  0.45332180    -0.60100
H227        H  0.65261417  0.24965786  0.47571631     0.43900
H228        H  0.51847704  0.21635708  0.01663941     0.43900
C229        C  0.63867824  0.37907752  0.51162317    -0.05200
C230        C  0.66474863  0.41256156  0.02745977    -0.32600
C231        C  0.65869423  0.43661335  0.03233478     0.36600
C232        C  0.62631325  0.42756151  0.52063706    -0.05500
C233        C  0.60715738  0.40127511  0.49362209    -0.32500
C234        C  0.61304931  0.37707722  0.48918528     0.36500
H235        H  0.68753014  0.41703688  0.03796430     0.16900
O236        O  0.68164041  0.46511996  0.04979846    -0.60000
H237        H  0.58777707  0.39973055  0.47533342     0.16900
O238        O  0.59494568  0.35269414  0.46058994    -0.60100
H239        H  0.57571289  0.33739460  0.47767814     0.43900
H240        H  0.69400097  0.47829724  0.02409047     0.43900
C241        C  0.88670725  0.40773067  0.41364136    -0.05200
C242        C  0.90232165  0.39169134  0.40642015    -0.32600
C243        C  0.92261879  0.39905726  0.37023801     0.36600
C244        C  0.92795848  0.42322335  0.34082684    -0.05500
C245        C  0.91161361  0.43870662  0.34755339    -0.32500
C246        C  0.89110265  0.43109805  0.38361589     0.36500
H247        H  0.89923951  0.37377670  0.42954286     0.16900
O248        O  0.93845030  0.38372102  0.36549776    -0.60000
H249        H  0.91512621  0.45717481  0.32520994     0.16900
O250        O  0.87643579  0.44744118  0.39013561    -0.60100
H251        H  0.89126860  0.46584383  0.40863444     0.43900
H252        H  0.92338693  0.36370115  0.35007500     0.43900
C253        C  0.88274669  0.40211709  0.07733638    -0.05200
C254        C  0.89918788  0.38689140  0.08399733    -0.32600
C255        C  0.91852076  0.39384311  0.12081192     0.36600
C256        C  0.92206239  0.41681310  0.15130415    -0.05500
C257        C  0.90396493  0.43049576  0.14609976    -0.32500
C258        C  0.88414118  0.42305374  0.10965005     0.36500
H259        H  0.89810088  0.37053976  0.05949805     0.16900
O260        O  0.93594653  0.38011855  0.12444861    -0.60000
H261        H  0.90608362  0.44792257  0.16948549     0.16900
O262        O  0.86851924  0.43848536  0.10393672    -0.60100
H263        H  0.84922351  0.42693180  0.12274325     0.43900
H264        H  0.92168493  0.35967083  0.13959074     0.43900
C265        C  0.78585561  0.37633392  0.49393975    -0.05200
C266        C  0.76425955  0.34908843  0.47031388    -0.32600
C267        C  0.73176926  0.33771280  0.47093681     0.36600
C268        C  0.72055294  0.35407981  0.49481389    -0.05500
C269        C  0.74590416  0.38563352  0.01169410    -0.32500
C270        C  0.77799735  0.39573716  0.01331840     0.36500
H271        H  0.77257344  0.33631760  0.45180089     0.16900
O272        O  0.71145113  0.31134123  0.44674713    -0.60000
H273        H  0.73748963  0.39735785  0.03243813     0.16900
O274        O  0.79817771  0.42097698  0.03952300    -0.60100
H275        H  0.79286446  0.41295158  0.07023887     0.43900
H276        H  0.70960842  0.29337018  0.46328543     0.43900
C277        C  0.58402829  0.52067524  0.17453794    -0.05200
C278        C  0.60844587  0.54415634  0.14787012    -0.32600
C279        C  0.61982774  0.53598108  0.11125725     0.36600
C280        C  0.60697809  0.50391173  0.10098835    -0.05500
C281        C  0.58367730  0.48051084  0.12872057    -0.32500
C282        C  0.57200268  0.48859238  0.16497007     0.36500
H283        H  0.61810756  0.56894370  0.15457280     0.16900
O284        O  0.64295231  0.55948243  0.08512800    -0.60000
H285        H  0.57343155  0.45573076  0.12116780     0.16900
O286        O  0.54891771  0.46486880  0.19088540    -0.60100
H287        H  0.52874241  0.45702546  0.17488615     0.43900
H288        H  0.66319371  0.56251361  0.09563367     0.43900
C289        C  0.58389292  0.51760509  0.36494710    -0.05200
C290        C  0.60695374  0.54069095  0.39317017    -0.32600
C291        C  0.61715946  0.53204738  0.43013860     0.36600
C292        C  0.60423129  0.49987537  0.43953861    -0.05500
C293        C  0.58268937  0.47686952  0.40985581    -0.32500
C294        C  0.57260359  0.48550584  0.37270212     0.36500
H295        H  0.61628347  0.56553824  0.38758145     0.16900
O296        O  0.63916337  0.55520805  0.45750030    -0.60000
H297        H  0.57265938  0.45199466  0.41639136     0.16900
O298        O  0.55112246  0.46229823  0.34491496    -0.60100
H299        H  0.56410185  0.46106903  0.32101052     0.43900
H300        H  0.65987362  0.55869300  0.44797003     0.43900
C301        C  0.50963703  0.56940683  0.37202978    -0.05200
C302        C  0.53025449  0.59572907  0.39820135    -0.32600
C303        C  0.51888645  0.60372209  0.43492564     0.36600
C304        C  0.48640053  0.58559085  0.44577673    -0.05500
C305        C  0.46558297  0.55973646  0.41938950    -0.32500
C306        C  0.47697217  0.55129544  0.38306712     0.36500
H307        H  0.55543961  0.60986839  0.39076527     0.16900
O308        O  0.53976226  0.62909312  0.46036439    -0.60000
H309        H  0.44053184  0.54553411  0.42770978     0.16900
O310        O  0.45586949  0.52555935  0.35838452    -0.60100
H311        H  0.45298006  0.50698802  0.37453612     0.43900
H312        H  0.53951782  0.64729721  0.44811737     0.43900
C313        C  0.51054261  0.57410465  0.17901074    -0.05200
C314        C  0.47791633  0.55625457  0.16934852    -0.32600
C315        C  0.46592161  0.56416345  0.13350395     0.36600
C316        C  0.48667877  0.58997248  0.10643742    -0.05500
C317        C  0.51904855  0.60822431  0.11650038    -0.32500
C318        C  0.53106842  0.60058848  0.15241957     0.36500
H319        H  0.46171309  0.53576705  0.18911400     0.16900
O320        O  0.43428893  0.54534872  0.12346255    -0.60000
H321        H  0.53522258  0.62805639  0.09565741     0.16900
O322        O  0.56311949  0.61857199  0.16010941    -0.60100
H323        H  0.57223752  0.60849206  0.14260337     0.43900
H324        H  0.42362712  0.55333347  0.14208016     0.43900
O325        O  0.54090627  0.51113534  0.72743241    -0.74100
O326        O  0.50797785  0.53880257  0.81869778    -0.74200
O327        O  0.50669944  0.53869622  0.72994458    -0.74200
O328        O  0.54231480  0.51141693  0.81636771    -0.74300
O329        O  0.58720023  0.55888652  0.81502383    -0.74200
O330        O  0.55141943  0.58626887  0.72910198    -0.74200
O331        O  0.55290553  0.58625479  0.81817951    -0.74200
O332        O  0.58561351  0.55868057  0.72575872    -0.74200
Ni333      Ni  0.52290388  0.52332570  0.77314721     1.25400
Ni334      Ni  0.57089453  0.57422592  0.77194872     1.25400
C335        C  0.56867776  0.53020392  0.71147922     0.88000
C336        C  0.52489350  0.56707880  0.83346504     0.88000
C337        C  0.52319023  0.56706499  0.71526578     0.88000
C338        C  0.57060236  0.53063754  0.83005886     0.88200
C339        C  0.82289909  0.38966822  0.99011203     0.03400
C340        C  0.83522655  0.39091133  0.53451377    -0.12700
C341        C  0.86721523  0.40033181  0.53505839     0.00900
C342        C  0.88573762  0.40521285  0.99563606    -0.11300
C343        C  0.87273173  0.40391147  0.95435474     0.03400
C344        C  0.84126863  0.39611333  0.95169216    -0.10700
H345        H  0.82218540  0.38588808  0.56527265     0.09000
H346        H  0.91028374  0.41190839  0.99778025     0.06500
H347        H  0.83107401  0.39498628  0.91976582     0.06400
C348        C  0.62408156  0.45777535  0.01877502     0.03400
C349        C  0.61977484  0.46908166  0.97900171    -0.12700
C350        C  0.61353000  0.49318897  0.97902297     0.00900
C351        C  0.61130010  0.50579382  0.01918008    -0.11300
C352        C  0.61049322  0.48965519  0.56189735     0.03400
C353        C  0.61708197  0.46565914  0.56179773    -0.10700
H354        H  0.62101270  0.45890673  0.94802382     0.09000
H355        H  0.60453511  0.52307224  0.01925947     0.06500
H356        H  0.61832438  0.45562276  0.59274479     0.06400
C357        C  0.65074677  0.35976039  0.99976293     0.80500
N358        N  0.68179712  0.36962251  0.99545320    -0.77800
C359        C  0.69059801  0.34884941  0.98650227     0.82900
N360        N  0.66794548  0.31763993  0.98227303    -0.77700
C361        C  0.63667822  0.30725675  0.98695720     0.83000
N362        N  0.62823877  0.32846034  0.99580705    -0.79500
C363        C  0.54176958  0.17276917  0.98495650     0.03400
C364        C  0.53173114  0.15567560  0.94516507    -0.12700
C365        C  0.50983806  0.12287921  0.94548887     0.00900
C366        C  0.49815189  0.10709668  0.98576728    -0.11300
C367        C  0.50541012  0.11927521  0.52659418     0.03400
C368        C  0.52557653  0.15235568  0.52708360    -0.10700
H369        H  0.54089434  0.16780892  0.91394324     0.09000
H370        H  0.48222387  0.08159220  0.98607991     0.06500
H371        H  0.53492187  0.16472487  0.55800484     0.06400
O372        O  0.49435508  0.03198734  0.69120751    -0.74100
O373        O  0.47308109  0.97064239  0.78171308    -0.74200
O374        O  0.47114946  0.96934380  0.69248612    -0.74200
O375        O  0.49620367  0.03327024  0.78044295    -0.74300
O376        O  0.44687070  0.02285259  0.78331650    -0.74200
O377        O  0.42189121  0.95927088  0.69466366    -0.74200
O378        O  0.42357125  0.95993739  0.78393373    -0.74200
O379        O  0.44500814  0.02172726  0.69369406    -0.74200
Ni380      Ni  0.48543380  0.00166542  0.73640368     1.25400
Ni381      Ni  0.43257654  0.99060321  0.73905078     1.25400
C382        C  0.47304448  0.03662824  0.67700411     0.88000
C383        C  0.44492685  0.95527130  0.79792923     0.88000
C384        C  0.44249097  0.95404431  0.67857521     0.88000
C385        C  0.47569607  0.03854774  0.79672043     0.88200
O386        O  0.96280953  0.46110900  0.69732752    -0.74100
O387        O  0.03051726  0.49318611  0.78080925    -0.74200
O388        O  0.02677268  0.49126387  0.69191853    -0.74200
O389        O  0.96666902  0.46342327  0.78622250    -0.74300
O390        O  0.96265551  0.41692544  0.78696518    -0.74200
O391        O  0.02263679  0.44468367  0.69149748    -0.74200
O392        O  0.02635512  0.44660962  0.78076399    -0.74200
O393        O  0.95890714  0.41463826  0.69767081    -0.74200
Ni394      Ni  0.99682682  0.47889179  0.73903545     1.25400
Ni395      Ni  0.99248864  0.42904400  0.73922709     1.25400
C396        C  0.95001282  0.43267444  0.68329697     0.88000
C397        C  0.03932030  0.47498264  0.79498118     0.89200
C398        C  0.03461014  0.47266394  0.67604127     0.88000
C399        C  0.95497203  0.43577744  0.80255603     0.88200
C400        C  0.44021810  0.60695029  0.52212206     0.03400
C401        C  0.45097758  0.60393434  0.56333304    -0.12700
C402        C  0.47336817  0.59533419  0.56580028     0.00900
C403        C  0.48519584  0.58988681  0.52715635    -0.11300
C404        C  0.47699377  0.59865491  0.98510884     0.03400
C405        C  0.45366008  0.60621479  0.98584158    -0.10700
H406        H  0.44200500  0.60829584  0.59337193     0.09000
H407        H  0.50239316  0.58299112  0.52921030     0.06500
H408        H  0.44521062  0.61000354  0.95509935     0.06400
C409        C  0.35532128  0.65153359  0.50806568     0.80500
N410        N  0.36466020  0.68142874  0.01539501    -0.77800
C411        C  0.34492960  0.69179841  0.00739085     0.82900
N412        N  0.31329339  0.67030359  0.00303219    -0.77700
C413        C  0.30135987  0.63884550  0.00687870     0.83000
N414        N  0.32352621  0.63087805  0.50450206    -0.79500
C415        C  0.16862692  0.55046120  0.48751848     0.03400
C416        C  0.15038461  0.53794555  0.52618808    -0.12700
C417        C  0.11762841  0.51555346  0.52388013     0.00900
C418        C  0.10328467  0.50570343  0.48252278    -0.11300
C419        C  0.11913386  0.51493153  0.94762136     0.03400
C420        C  0.15191705  0.53702254  0.95049712    -0.10700
H421        H  0.16162706  0.54589198  0.55808034     0.09000
H422        H  0.07783903  0.48915982  0.48031041     0.06500
H423        H  0.16597402  0.54649773  0.92061997     0.06400
C424        C  0.39272931  0.82518011  0.99073173     0.03400
C425        C  0.39879431  0.84068507  0.94984961    -0.12700
C426        C  0.41280796  0.87358604  0.94841478     0.00900
C427        C  0.42005540  0.89064851  0.98782349    -0.11300
C428        C  0.41215951  0.87539107  0.52505100     0.03400
C429        C  0.40326663  0.84375997  0.52441692    -0.10700
H430        H  0.39381029  0.82745936  0.91944168     0.09000
H431        H  0.43060441  0.91602198  0.98674043     0.06500
H432        H  0.40028517  0.83152215  0.55524375     0.06400
C433        C  0.35773119  0.72612094  0.00236413    -0.05200
C434        C  0.33961483  0.73600916  0.98062319    -0.32600
C435        C  0.35104132  0.76820560  0.97552903     0.36600
C436        C  0.38068962  0.79110546  0.99304932    -0.05500
C437        C  0.40331026  0.78339717  0.50573792    -0.32500
C438        C  0.39186810  0.75118781  0.50953710     0.36500
H439        H  0.31651476  0.71877573  0.96734799     0.16900
O440        O  0.33245692  0.77703767  0.95524741    -0.60000
H441        H  0.42616604  0.80056374  0.51979758     0.16900
O442        O  0.40985175  0.74237649  0.53156236    -0.60100
H443        H  0.42590751  0.74473218  0.50975454     0.43900
H444        H  0.33622466  0.77642974  0.92320851     0.43900
C445        C  0.20316846  0.57375079  0.49029365    -0.05200
C446        C  0.21490600  0.59861135  0.97261596    -0.32600
C447        C  0.24736355  0.62148583  0.97638589     0.36600
C448        C  0.26913972  0.61857105  0.49477537    -0.05500
C449        C  0.25561946  0.58903088  0.51567108    -0.32500
C450        C  0.22292691  0.56686268  0.51392516     0.36500
H451        H  0.20029437  0.60360093  0.95231903     0.16900
O452        O  0.25994855  0.64910669  0.95297766    -0.60000
H453        H  0.27038371  0.58309095  0.53379766     0.16900
O454        O  0.21065541  0.53796726  0.53378951    -0.60100
H455        H  0.21006861  0.54186308  0.56576778     0.43900
H456        H  0.25533502  0.66276511  0.97099360     0.43900
C457        C  0.41778707  0.61756349  0.51955522    -0.05200
C458        C  0.42489764  0.64531310  0.54144197    -0.32600
C459        C  0.40469047  0.65660311  0.53826450     0.36600
C460        C  0.37657468  0.63971606  0.51350921    -0.05500
C461        C  0.36752886  0.61038209  0.00416582    -0.32500
C462        C  0.38887697  0.60039606  0.00515996     0.36500
H463        H  0.44650231  0.65859799  0.56046544     0.16900
O464        O  0.41203985  0.68350809  0.56071030    -0.60000
H465        H  0.34547470  0.59625271  0.98636379     0.16900
O466        O  0.38112932  0.57282312  0.98435027    -0.60100
H467        H  0.37224096  0.55648677  0.00783225     0.43900
H468        H  0.43058881  0.70105992  0.54489556     0.43900
C469        C  0.06349129  0.48601424  0.82998686    -0.05200
C470        C  0.06348450  0.46346908  0.85744221    -0.32600
C471        C  0.08287735  0.47275490  0.89451006     0.36600
C472        C  0.10293041  0.50505169  0.90463579    -0.05500
C473        C  0.10470663  0.52773747  0.87567159    -0.32500
C474        C  0.08496263  0.51843958  0.83868920     0.36500
H475        H  0.04732589  0.43842719  0.85139757     0.16900
O476        O  0.08110371  0.45002256  0.92172795    -0.60000
H477        H  0.12022897  0.55268823  0.88296254     0.16900
O478        O  0.08675995  0.54117914  0.81146581    -0.60100
H479        H  0.07424803  0.54865921  0.82654674     0.43900
H480        H  0.09826287  0.44705497  0.91145468     0.43900
C481        C  0.09788494  0.50398324  0.56440173    -0.05200
C482        C  0.10059498  0.52586349  0.59588241    -0.32600
C483        C  0.08043056  0.51595111  0.63265700     0.36600
C484        C  0.05734586  0.48357033  0.63882396    -0.05500
C485        C  0.05530153  0.46156098  0.60805962    -0.32500
C486        C  0.07525569  0.47153781  0.57101259     0.36500
H487        H  0.11781315  0.55089238  0.59131342     0.16900
O488        O  0.08393162  0.53806348  0.66282178    -0.60000
H489        H  0.03765884  0.43659096  0.61214709     0.16900
O490        O  0.07223370  0.44940792  0.54126768    -0.60100
H491        H  0.08770592  0.44395230  0.55081937     0.43900
H492        H  0.07281563  0.54769513  0.64990611     0.43900
C493        C  0.43325257  0.93100896  0.64216868    -0.05200
C494        C  0.40614381  0.92261569  0.61726818    -0.32600
C495        C  0.39851549  0.90360308  0.57986971     0.36600
C496        C  0.41786165  0.89237747  0.56700879    -0.05500
C497        C  0.44398012  0.89926120  0.59283789    -0.32500
C498        C  0.45197272  0.91870139  0.63000243     0.36500
H499        H  0.39136903  0.93171330  0.62582604     0.16900
O500        O  0.37259447  0.89683187  0.55532127    -0.60000
H501        H  0.45888333  0.89050879  0.58321214     0.16900
O502        O  0.47804066  0.92542470  0.65413874    -0.60100
H503        H  0.49652773  0.94269493  0.63784721     0.43900
H504        H  0.35531373  0.87555450  0.56525087     0.43900
C505        C  0.42113925  0.89113966  0.90637796    -0.05200
C506        C  0.45270721  0.91580693  0.89913263    -0.32600
C507        C  0.46085364  0.93629691  0.86335964     0.36600
C508        C  0.43718930  0.93234619  0.83395673    -0.05500
C509        C  0.40567942  0.90701807  0.84051835    -0.32500
C510        C  0.39763679  0.88629856  0.87624127     0.36500
H511        H  0.47097545  0.91986083  0.92231269     0.16900
O512        O  0.49180195  0.96093979  0.85870282    -0.60000
H513        H  0.38715167  0.90354858  0.81829624     0.16900
O514        O  0.36648459  0.86278208  0.88310823    -0.60100
H515        H  0.36329424  0.84458700  0.86551409     0.43900
H516        H  0.49316244  0.97878024  0.87513652     0.43900
C517        C  0.48514687  0.06247447  0.83223880    -0.05200
C518        C  0.46162406  0.06443984  0.85520426    -0.32600
C519        C  0.46946862  0.08478649  0.89130921     0.36600
C520        C  0.50131317  0.10422078  0.90437919    -0.05500
C521        C  0.52501437  0.10343339  0.88046904    -0.32500
C522        C  0.51720539  0.08259405  0.84502188     0.36500
H523        H  0.43688002  0.04949573  0.84608185     0.16900
O524        O  0.44590902  0.08570447  0.91353737    -0.60000
H525        H  0.54960481  0.11812137  0.89049947     0.16900
O526        O  0.54117119  0.08205525  0.82341464    -0.60100
H527        H  0.54511845  0.06794137  0.84126109     0.43900
H528        H  0.43567403  0.06675798  0.93283328     0.43900
C529        C  0.49721463  0.10023025  0.56750888    -0.05200
C530        C  0.46552671  0.07579425  0.57508142    -0.32600
C531        C  0.45729251  0.05518634  0.61077767     0.36600
C532        C  0.48086670  0.05903235  0.64023421    -0.05500
C533        C  0.51253591  0.08367372  0.63296295    -0.32500
C534        C  0.52080097  0.10424995  0.59705388     0.36500
H535        H  0.44710421  0.07219317  0.55252841     0.16900
O536        O  0.42630629  0.03064050  0.61546213    -0.60000
H537        H  0.53107745  0.08679409  0.65487910     0.16900
O538        O  0.55220993  0.12677852  0.58946373    -0.60100
H539        H  0.55776408  0.14354056  0.61163948     0.43900
H540        H  0.42481973  0.01280741  0.59883497     0.43900
C541        C  0.61210920  0.27299416  0.98489973    -0.05200
C542        C  0.57636494  0.25767108  0.50596884    -0.32600
C543        C  0.55245921  0.22551612  0.50521330     0.36600
C544        C  0.56548422  0.20740081  0.98464639    -0.05500
C545        C  0.59287570  0.21979439  0.95820694    -0.32500
C546        C  0.61615092  0.25219307  0.95840176     0.36500
H547        H  0.57097154  0.27412223  0.52029316     0.16900
O548        O  0.52299268  0.21573126  0.52210850    -0.60000
H549        H  0.59657685  0.20421496  0.93783989     0.16900
O550        O  0.64226756  0.26337414  0.93150720    -0.60100
H551        H  0.65603623  0.25752337  0.94646311     0.43900
H552        H  0.51040980  0.21514994  0.49652343     0.43900
C553        C  0.64211431  0.38337175  0.00836695    -0.05200
C554        C  0.65752070  0.40508456  0.53925102    -0.32600
C555        C  0.65143581  0.42916663  0.54398156     0.36600
C556        C  0.62972519  0.43178533  0.01795774    -0.05500
C557        C  0.60672058  0.40250455  0.99996542    -0.32500
C558        C  0.61254902  0.37822443  0.99553792     0.36500
H559        H  0.67729710  0.40693816  0.55683855     0.16900
O560        O  0.67081130  0.45462176  0.57030574    -0.60000
H561        H  0.58434330  0.39866897  0.98866197     0.16900
O562        O  0.58993496  0.35036075  0.97623244    -0.60100
H563        H  0.57533875  0.33744960  0.00057152     0.43900
H564        H  0.68778783  0.47038055  0.55040849     0.43900
C565        C  0.89241336  0.41103389  0.91426124    -0.05200
C566        C  0.90793814  0.39493619  0.90655414    -0.32600
C567        C  0.92775657  0.40209286  0.86976600     0.36600
C568        C  0.93263044  0.42603473  0.84023563    -0.05500
C569        C  0.91692994  0.44202528  0.84803784    -0.32500
C570        C  0.89703789  0.43474380  0.88470032     0.36500
H571        H  0.90479531  0.37682733  0.92934044     0.16900
O572        O  0.94341232  0.38663245  0.86430839    -0.60000
H573        H  0.92034155  0.46055659  0.82590306     0.16900
O574        O  0.88296599  0.45157020  0.89203670    -0.60100
H575        H  0.89833741  0.46995446  0.91014544     0.43900
H576        H  0.92795963  0.36642430  0.84960601     0.43900
C577        C  0.88419973  0.40491578  0.57683653    -0.05200
C578        C  0.90187967  0.39083157  0.58188462    -0.32600
C579        C  0.92223714  0.39849496  0.61761294     0.36600
C580        C  0.92548169  0.42094702  0.64884702    -0.05500
C581        C  0.90663196  0.43390293  0.64494110    -0.32500
C582        C  0.88582028  0.42577357  0.60946691     0.36500
H583        H  0.90075478  0.37464199  0.55706811     0.16900
O584        O  0.94073532  0.38585060  0.61959229    -0.60000
H585        H  0.90864413  0.45101934  0.66881447     0.16900
O586        O  0.86914000  0.44023912  0.60513952    -0.60100
H587        H  0.85046955  0.42837049  0.62498420     0.43900
H588        H  0.92706701  0.36482380  0.63358973     0.43900
C589        C  0.78947847  0.38064398  0.98718733    -0.05200
C590        C  0.76861337  0.35613375  0.95874857    -0.32600
C591        C  0.73635457  0.34567221  0.95765501     0.36600
C592        C  0.72467565  0.36013223  0.98481372    -0.05500
C593        C  0.74243782  0.38177008  0.51764839    -0.32500
C594        C  0.77477441  0.39274996  0.51765769     0.36500
H595        H  0.77720344  0.34454500  0.93805651     0.16900
O596        O  0.71668261  0.32202911  0.92899577    -0.60000
H597        H  0.73447356  0.39488574  0.53603428     0.16900
O598        O  0.79556800  0.42021127  0.53953636    -0.60100
H599        H  0.79279760  0.41442061  0.57123039     0.43900
H600        H  0.71326105  0.30233445  0.94218997     0.43900
C601        C  0.58112842  0.51932859  0.67565331    -0.05200
C602        C  0.60732927  0.54167062  0.65019618    -0.32600
C603        C  0.61809878  0.53220610  0.61425653     0.36600
C604        C  0.60285529  0.49994715  0.60334484    -0.05500
C605        C  0.57775055  0.47749139  0.62987458    -0.32500
C606        C  0.56666202  0.48688348  0.66548414     0.36500
H607        H  0.61900883  0.56667851  0.65732816     0.16900
O608        O  0.64305500  0.55472526  0.58930208    -0.60000
H609        H  0.56574439  0.45258671  0.62179707     0.16900
O610        O  0.54167006  0.46405565  0.69006256    -0.60100
H611        H  0.52239227  0.45845435  0.67311311     0.43900
H612        H  0.66214705  0.55619360  0.60172123     0.43900
C613        C  0.58394359  0.52050846  0.86475806    -0.05200
C614        C  0.60977357  0.54350558  0.88970521    -0.32600
C615        C  0.62061080  0.53482502  0.92593066     0.36600
C616        C  0.60565934  0.50276801  0.93763942    -0.05500
C617        C  0.58112715  0.47965239  0.91131929    -0.32500
C618        C  0.57026353  0.48825531  0.87506966     0.36500
H619        H  0.62092162  0.56840339  0.88216524     0.16900
O620        O  0.64523482  0.55788218  0.95042372    -0.60000
H621        H  0.56948484  0.45486142  0.91993256     0.16900
O622        O  0.54567946  0.46493071  0.85082839    -0.60100
H623        H  0.55594796  0.46046069  0.82625871     0.43900
H624        H  0.66450836  0.55919191  0.93863316     0.43900
C625        C  0.51215990  0.57744070  0.86933914    -0.05200
C626        C  0.53326955  0.60186615  0.89775195    -0.32600
C627        C  0.52198904  0.61005000  0.93443430     0.36600
C628        C  0.48912611  0.59393495  0.94308310    -0.05500
C629        C  0.46790376  0.57091460  0.91332697    -0.32500
C630        C  0.47915347  0.56240382  0.87688458     0.36500
H631        H  0.55868187  0.61391630  0.89247980     0.16900
O632        O  0.54332335  0.63321803  0.96239866    -0.60000
H633        H  0.44254888  0.55848301  0.91944157     0.16900
O634        O  0.45766552  0.53949525  0.84875506    -0.60100
H635        H  0.45073411  0.51912168  0.86351906     0.43900
H636        H  0.54431009  0.65269578  0.95311733     0.43900
C637        C  0.50964630  0.57732704  0.68099204    -0.05200
C638        C  0.47706801  0.55823990  0.67129986    -0.32600
C639        C  0.46438681  0.56521952  0.63545563     0.36600
C640        C  0.48441840  0.59130486  0.60848528    -0.05500
C641        C  0.51640848  0.61147625  0.61949691    -0.32500
C642        C  0.52910465  0.60483839  0.65560240     0.36500
H643        H  0.46152776  0.53724849  0.69062265     0.16900
O644        O  0.43298585  0.54510458  0.62504891    -0.60000
H645        H  0.53188270  0.63175027  0.59888212     0.16900
O646        O  0.56080573  0.62474157  0.66449358    -0.60100
H647        H  0.57177642  0.61723895  0.64557123     0.43900
H648        H  0.42158195  0.55328801  0.64146241     0.43900
loop_ 
_geom_bond_atom_site_label_1 
_geom_bond_atom_site_label_2 
_geom_bond_distance 
_geom_bond_site_symmetry_2 
_ccdc_geom_bond_type 
O1           Ni9   1.910       .  S
O1           C11   1.280       .  A
O2           Ni9   1.913       .  S
O2           C12   1.280       .  A
O3           Ni9   1.918       .  S
O3           C13   1.282       .  A
O4           Ni9   1.916       .  S
O4           C14   1.282       .  A
O5          Ni10   1.908       .  S
O5           C14   1.280       .  A
O6          Ni10   1.909       .  S
O6           C13   1.280       .  A
O7          Ni10   1.917       .  S
O7           C12   1.282       .  A
O8          Ni10   1.918       .  S
O8           C11   1.282       .  A
Ni9         Ni10   2.386       .  S
C11         C277   1.481       .  S
C12         C301   1.482       .  S
C13         C313   1.481       .  S
C14         C289   1.477       .  S
C15         C265   1.475       .  S
C15          C20   1.405       .  A
C15         C340   1.405       .  A
C16          C17   1.400       .  A
C16         C339   1.405   1_554  A
C16          H21   1.083       .  S
C17         C253   1.476       .  S
C17         C342   1.401   1_554  A
C18          C19   1.398       .  A
C18         C341   1.399       .  A
C18          H22   1.085       .  S
C19         C241   1.474       .  S
C19          C20   1.401       .  A
C20          H23   1.084       .  S
C24         C232   1.479       .  S
C24          C25   1.402       .  A
C24         C353   1.406       .  A
C25          C26   1.399       .  A
C25          H30   1.084       .  S
C26         C292   1.479       .  S
C26          C27   1.402       .  A
C27         C352   1.402       .  A
C27          H31   1.084       .  S
C28         C280   1.479       .  S
C28          C29   1.405       .  A
C28         C351   1.402       .  A
C29         C348   1.402       .  A
C29          H32   1.084       .  S
C33         C229   1.474       .  S
C33          N34   1.354       .  A
C33          N38   1.357       .  A
N34          C35   1.356       .  A
C35         C268   1.480       .  S
C35          N36   1.359       .  A
N36          C37   1.361       .  A
C37         C217   1.486       .  S
C37          N38   1.360       .  A
C39         C220   1.472       .  S
C39          C40   1.401       .  A
C39         C368   1.403       .  A
C40          C41   1.402       .  A
C40          H45   1.084       .  S
C41         C196   1.480       .  S
C41          C42   1.402       .  A
C42         C367   1.402       .  A
C42          H46   1.083       .  S
C43         C205   1.479       .  S
C43          C44   1.403       .  A
C43         C366   1.400   1_554  A
C44         C363   1.407   1_554  A
C44          H47   1.083       .  S
O48         Ni56   1.913       .  S
O48          C58   1.281       .  A
O49         Ni56   1.918   1_565  S
O49          C59   1.282       .  A
O50         Ni56   1.907   1_565  S
O50          C60   1.279       .  A
O51         Ni56   1.907       .  S
O51          C61   1.280       .  A
O52         Ni57   1.917   1_545  S
O52          C61   1.281       .  A
O53         Ni57   1.917       .  S
O53          C60   1.282       .  A
O54         Ni57   1.913       .  S
O54          C59   1.281       .  A
O55         Ni57   1.917   1_545  S
O55          C58   1.281       .  A
Ni56        Ni57   2.388   1_545  S
C58         C208   1.482       .  S
C59         C184   1.479       .  S
C60         C169   1.475       .  S
C61         C193   1.473       .  S
O62         Ni70   1.911       .  S
O62          C72   1.281       .  A
O63         Ni70   1.912   1_455  S
O63          C73   1.280       .  A
O64         Ni70   1.908   1_455  S
O64          C74   1.280       .  A
O65         Ni70   1.909       .  S
O65          C75   1.280       .  A
O66         Ni71   1.917       .  S
O66          C75   1.282       .  A
O67         Ni71   1.916   1_455  S
O67          C74   1.281       .  A
O68         Ni71   1.914   1_455  S
O68          C73   1.282       .  A
O69         Ni71   1.912       .  S
O69          C72   1.280       .  A
Ni70        Ni71   2.387       .  S
C72         C256   1.475       .  S
C73         C145   1.482       .  S
C74         C160   1.474       .  S
C75         C244   1.479       .  S
C76         C133   1.477       .  S
C76          C77   1.403       .  A
C76         C405   1.407   1_554  A
C77          C78   1.401       .  A
C77          H82   1.084       .  S
C78         C316   1.473       .  S
C78          C79   1.400       .  A
C79         C404   1.400   1_554  A
C79          H83   1.085       .  S
C80         C304   1.473       .  S
C80          C81   1.401       .  A
C80         C403   1.398       .  A
C81         C400   1.406       .  A
C81          H84   1.084       .  S
C85         C136   1.480       .  S
C85          N90   1.357       .  A
C85         N410   1.358       .  A
N86          C87   1.358       .  A
N86         C409   1.357       .  A
C87         C109   1.484       .  S
C87          N88   1.360       .  A
N88          C89   1.359       .  A
C89         C448   1.481       .  S
C89         N414   1.358       .  A
N90         C413   1.358       .  A
C91         C121   1.480       .  S
C91          C92   1.404   1_556  A
C91         C420   1.406       .  A
C92          C93   1.401       .  A
C92          H97   1.083       .  S
C93         C157   1.478       .  S
C93          C94   1.399   1_554  A
C94         C419   1.401       .  A
C94          H98   1.084       .  S
C95         C148   1.470       .  S
C95          C96   1.400       .  A
C95         C418   1.399       .  A
C96         C415   1.404       .  A
C96          H99   1.084       .  S
C100        C112   1.476       .  S
C100        C101   1.406       .  A
C100        C429   1.404       .  A
C101        C102   1.403       .  A
C101        H106   1.084       .  S
C102        C181   1.475       .  S
C102        C103   1.400       .  A
C103        C428   1.398       .  A
C103        H107   1.085       .  S
C104        C172   1.474       .  S
C104        C105   1.399       .  A
C104        C427   1.398   1_554  A
C105        C424   1.405   1_554  A
C105        H108   1.084       .  S
C109        C110   1.407       .  A
C109        C438   1.413       .  A
C110        C111   1.399       .  A
C110        H115   1.083       .  S
C111        C112   1.406       .  A
C111        O116   1.372       .  S
C112        C437   1.401       .  A
C113        C114   1.398       .  A
C113        C436   1.401   1_554  A
C113        H117   1.084       .  S
C114        C433   1.413       .  A
C114        O118   1.371       .  S
O116        H120   0.992       .  S
O118        H119   0.992       .  S
C121        C126   1.408   1_556  A
C121        C446   1.403       .  A
C122        C123   1.400       .  A
C122        C445   1.403       .  A
C122        H127   1.084       .  S
C123        C448   1.412       .  A
C123        O128   1.372       .  S
C124        C413   1.481       .  S
C124        C125   1.405       .  A
C124        C447   1.411   1_554  A
C125        C126   1.399       .  A
C125        H129   1.084       .  S
C126        O130   1.373       .  S
O128        H132   0.992       .  S
O130        H131   0.992       .  S
C133        C134   1.402       .  A
C133        C462   1.406       .  A
C134        C135   1.402       .  A
C134        H139   1.084       .  S
C135        C136   1.411       .  A
C135        O140   1.372       .  S
C136        C461   1.405       .  A
C137        C138   1.397       .  A
C137        C460   1.404       .  A
C137        H141   1.084       .  S
C138        C457   1.407       .  A
C138        O142   1.372       .  S
O140        H144   0.992       .  S
O142        H143   0.992       .  S
C145        C146   1.407       .  A
C145        C150   1.414       .  A
C146        C147   1.396       .  A
C146        H151   1.083       .  S
C147        C148   1.404       .  A
C147        O152   1.372       .  S
C148        C149   1.399       .  A
C149        C150   1.399       .  A
C149        H153   1.084       .  S
C150        O154   1.372       .  S
O152        H156   0.992       .  S
O154        H155   0.992       .  S
C157        C158   1.402       .  A
C157        C162   1.410       .  A
C158        C159   1.397       .  A
C158        H163   1.084       .  S
C159        C160   1.410       .  A
C159        O164   1.372       .  S
C160        C161   1.404       .  A
C161        C162   1.398       .  A
C161        H165   1.084       .  S
C162        O166   1.372       .  S
O164        H168   0.992       .  S
O166        H167   0.992       .  S
C169        C170   1.405       .  A
C169        C174   1.411       .  A
C170        C171   1.400       .  A
C170        H175   1.084       .  S
C171        C172   1.406       .  A
C171        O176   1.371       .  S
C172        C173   1.402       .  A
C173        C174   1.396       .  A
C173        H177   1.084       .  S
C174        O178   1.372       .  S
O176        H180   0.992       .  S
O178        H179   0.992       .  S
C181        C182   1.402       .  A
C181        C186   1.407       .  A
C182        C183   1.402       .  A
C182        H187   1.084       .  S
C183        C184   1.412       .  A
C183        O188   1.372       .  S
C184        C185   1.405       .  A
C185        C186   1.397       .  A
C185        H189   1.084       .  S
C186        O190   1.372       .  S
O188        H192   0.992       .  S
O190        H191   0.992       .  S
C193        C194   1.403       .  A
C193        C198   1.409       .  A
C194        C195   1.400       .  A
C194        H199   1.084       .  S
C195        C196   1.410       .  A
C195        O200   1.373       .  S
C196        C197   1.403       .  A
C197        C198   1.397       .  A
C197        H201   1.083       .  S
C198        O202   1.372       .  S
O200        H204   0.992       .  S
O202        H203   0.992       .  S
C205        C206   1.403       .  A
C205        C210   1.407       .  A
C206        C207   1.400       .  A
C206        H211   1.084       .  S
C207        C208   1.413       .  A
C207        O212   1.372       .  S
C208        C209   1.406       .  A
C209        C210   1.398       .  A
C209        H213   1.083       .  S
C210        O214   1.372       .  S
O212        H216   0.992       .  S
O214        H215   0.992       .  S
C217        C222   1.413       .  A
C217        C542   1.409       .  A
C218        C219   1.400       .  A
C218        C541   1.405   1_554  A
C218        H223   1.084       .  S
C219        C544   1.411   1_554  A
C219        O224   1.372       .  S
C220        C221   1.400       .  A
C220        C543   1.403       .  A
C221        C222   1.399       .  A
C221        H225   1.084       .  S
C222        O226   1.371       .  S
O224        H228   0.992       .  S
O226        H227   0.992       .  S
C229        C234   1.407       .  A
C229        C554   1.405       .  A
C230        C231   1.397       .  A
C230        C553   1.408       .  A
C230        H235   1.083       .  S
C231        C556   1.403       .  A
C231        O236   1.372       .  S
C232        C233   1.405       .  A
C232        C555   1.407       .  A
C233        C234   1.397       .  A
C233        H237   1.084       .  S
C234        O238   1.372       .  S
O236        H240   0.992       .  S
O238        H239   0.992       .  S
C241        C242   1.402       .  A
C241        C246   1.406       .  A
C242        C243   1.397       .  A
C242        H247   1.084       .  S
C243        C244   1.410       .  A
C243        O248   1.371       .  S
C244        C245   1.407       .  A
C245        C246   1.399       .  A
C245        H249   1.083       .  S
C246        O250   1.372       .  S
O248        H252   0.992       .  S
O250        H251   0.992       .  S
C253        C254   1.403       .  A
C253        C258   1.407       .  A
C254        C255   1.396       .  A
C254        H259   1.084       .  S
C255        C256   1.410       .  A
C255        O260   1.372       .  S
C256        C257   1.405       .  A
C257        C258   1.399       .  A
C257        H261   1.084       .  S
C258        O262   1.372       .  S
O260        H264   0.992       .  S
O262        H263   0.992       .  S
C265        C266   1.402       .  A
C265        C594   1.406       .  A
C266        C267   1.400       .  A
C266        H271   1.084       .  S
C267        C268   1.411       .  A
C267        O272   1.371       .  S
C268        C593   1.406       .  A
C269        C270   1.397       .  A
C269        C592   1.405   1_554  A
C269        H273   1.084       .  S
C270        C589   1.407   1_554  A
C270        O274   1.373       .  S
O272        H276   0.992       .  S
O274        H275   0.992       .  S
C277        C278   1.406       .  A
C277        C282   1.412       .  A
C278        C279   1.400       .  A
C278        H283   1.083       .  S
C279        C280   1.409       .  A
C279        O284   1.372       .  S
C280        C281   1.401       .  A
C281        C282   1.397       .  A
C281        H285   1.084       .  S
C282        O286   1.372       .  S
O284        H288   0.992       .  S
O286        H287   0.992       .  S
C289        C290   1.405       .  A
C289        C294   1.410       .  A
C290        C291   1.396       .  A
C290        H295   1.083       .  S
C291        C292   1.407       .  A
C291        O296   1.372       .  S
C292        C293   1.405       .  A
C293        C294   1.398       .  A
C293        H297   1.084       .  S
C294        O298   1.372       .  S
O296        H300   0.992       .  S
O298        H299   0.992       .  S
C301        C302   1.406       .  A
C301        C306   1.414       .  A
C302        C303   1.397       .  A
C302        H307   1.083       .  S
C303        C304   1.405       .  A
C303        O308   1.372       .  S
C304        C305   1.400       .  A
C305        C306   1.400       .  A
C305        H309   1.084       .  S
C306        O310   1.372       .  S
O308        H312   0.992       .  S
O310        H311   0.992       .  S
C313        C314   1.407       .  A
C313        C318   1.413       .  A
C314        C315   1.401       .  A
C314        H319   1.083       .  S
C315        C316   1.406       .  A
C315        O320   1.372       .  S
C316        C317   1.399       .  A
C317        C318   1.396       .  A
C317        H321   1.084       .  S
C318        O322   1.372       .  S
O320        H324   0.992       .  S
O322        H323   0.992       .  S
O325       Ni333   1.914       .  S
O325        C335   1.281       .  A
O326       Ni333   1.913       .  S
O326        C336   1.280       .  A
O327       Ni333   1.910       .  S
O327        C337   1.281       .  A
O328       Ni333   1.911       .  S
O328        C338   1.281       .  A
O329       Ni334   1.910       .  S
O329        C338   1.280       .  A
O330       Ni334   1.909       .  S
O330        C337   1.280       .  A
O331       Ni334   1.920       .  S
O331        C336   1.282       .  A
O332       Ni334   1.923       .  S
O332        C335   1.283       .  A
Ni333      Ni334   2.386       .  S
C335        C601   1.487       .  S
C336        C625   1.482       .  S
C337        C637   1.478       .  S
C338        C613   1.477       .  S
C339        C589   1.478       .  S
C339        C344   1.404       .  A
C340        C341   1.400       .  A
C340        H345   1.083       .  S
C341        C577   1.476       .  S
C342        C343   1.399       .  A
C342        H346   1.084       .  S
C343        C565   1.476       .  S
C343        C344   1.402       .  A
C344        H347   1.084       .  S
C348        C556   1.472       .  S
C348        C349   1.400   1_554  A
C349        C350   1.399       .  A
C349        H354   1.084       .  S
C350        C616   1.473       .  S
C350        C351   1.401   1_556  A
C351        H355   1.084       .  S
C352        C604   1.480       .  S
C352        C353   1.405       .  A
C353        H356   1.084       .  S
C357        C553   1.481   1_556  S
C357        N358   1.355       .  A
C357        N362   1.359       .  A
N358        C359   1.354       .  A
C359        C592   1.476       .  S
C359        N360   1.358       .  A
N360        C361   1.360       .  A
C361        C541   1.483       .  S
C361        N362   1.361       .  A
C363        C544   1.487       .  S
C363        C364   1.408       .  A
C364        C365   1.403       .  A
C364        H369   1.084       .  S
C365        C520   1.477       .  S
C365        C366   1.399       .  A
C366        H370   1.084       .  S
C367        C529   1.483       .  S
C367        C368   1.404       .  A
C368        H371   1.083       .  S
O372       Ni380   1.914       .  S
O372        C382   1.281       .  A
O373       Ni380   1.912   1_565  S
O373        C383   1.281       .  A
O374       Ni380   1.915   1_565  S
O374        C384   1.281       .  A
O375       Ni380   1.914       .  S
O375        C385   1.281       .  A
O376       Ni381   1.920   1_545  S
O376        C385   1.283       .  A
O377       Ni381   1.913       .  S
O377        C384   1.281       .  A
O378       Ni381   1.918       .  S
O378        C383   1.281       .  A
O379       Ni381   1.916   1_545  S
O379        C382   1.281       .  A
Ni380      Ni381   2.386   1_545  S
C382        C532   1.479       .  S
C383        C508   1.479       .  S
C384        C493   1.481       .  S
C385        C517   1.487       .  S
O386       Ni394   1.917       .  S
O386        C396   1.282       .  A
O387       Ni394   1.917   1_455  S
O387        C397   1.281       .  A
O388       Ni394   1.908   1_455  S
O388        C398   1.279       .  A
O389       Ni394   1.907       .  S
O389        C399   1.280       .  A
O390       Ni395   1.919       .  S
O390        C399   1.282       .  A
O391       Ni395   1.919   1_455  S
O391        C398   1.282       .  A
O392       Ni395   1.909   1_455  S
O392        C397   1.280       .  A
O393       Ni395   1.908       .  S
O393        C396   1.279       .  A
Ni394      Ni395   2.388       .  S
C396        C580   1.475       .  S
C397        C469   1.478       .  S
C398        C484   1.476       .  S
C399        C568   1.479       .  S
C400        C457   1.476       .  S
C400        C401   1.403       .  A
C401        C402   1.398       .  A
C401        H406   1.084       .  S
C402        C640   1.466       .  S
C402        C403   1.399       .  A
C403        H407   1.085       .  S
C404        C628   1.479       .  S
C404        C405   1.403       .  A
C405        H408   1.084       .  S
C409        C460   1.475       .  S
C409        N414   1.357       .  A
N410        C411   1.359       .  A
C411        C433   1.487       .  S
C411        N412   1.359       .  A
N412        C413   1.359       .  A
C415        C445   1.478       .  S
C415        C416   1.405       .  A
C416        C417   1.403       .  A
C416        H421   1.084       .  S
C417        C481   1.480       .  S
C417        C418   1.399       .  A
C418        H422   1.084       .  S
C419        C472   1.476       .  S
C419        C420   1.403       .  A
C420        H423   1.084       .  S
C424        C436   1.477       .  S
C424        C425   1.407       .  A
C425        C426   1.404       .  A
C425        H430   1.083       .  S
C426        C505   1.476       .  S
C426        C427   1.399       .  A
C427        H431   1.085       .  S
C428        C496   1.471       .  S
C428        C429   1.398       .  A
C429        H432   1.084       .  S
C433        C434   1.409   1_554  A
C434        C435   1.402       .  A
C434        H439   1.083       .  S
C435        C436   1.405       .  A
C435        O440   1.372       .  S
C437        C438   1.398       .  A
C437        H441   1.084       .  S
C438        O442   1.371       .  S
O440        H444   0.992       .  S
O442        H443   0.992       .  S
C445        C450   1.407       .  A
C446        C447   1.400       .  A
C446        H451   1.084       .  S
C447        O452   1.372       .  S
C448        C449   1.406       .  A
C449        C450   1.398       .  A
C449        H453   1.083       .  S
C450        O454   1.372       .  S
O452        H456   0.992       .  S
O454        H455   0.992       .  S
C457        C458   1.403       .  A
C458        C459   1.399       .  A
C458        H463   1.084       .  S
C459        C460   1.409       .  A
C459        O464   1.372       .  S
C461        C462   1.398       .  A
C461        H465   1.083   1_554  S
C462        O466   1.372   1_554  S
O464        H468   0.992       .  S
O466        H467   0.992   1_556  S
C469        C470   1.405       .  A
C469        C474   1.411       .  A
C470        C471   1.395       .  A
C470        H475   1.084       .  S
C471        C472   1.407       .  A
C471        O476   1.372       .  S
C472        C473   1.403       .  A
C473        C474   1.402       .  A
C473        H477   1.084       .  S
C474        O478   1.372       .  S
O476        H480   0.992       .  S
O478        H479   0.992       .  S
C481        C482   1.403       .  A
C481        C486   1.410       .  A
C482        C483   1.398       .  A
C482        H487   1.084       .  S
C483        C484   1.410       .  A
C483        O488   1.372       .  S
C484        C485   1.404       .  A
C485        C486   1.399       .  A
C485        H489   1.084       .  S
C486        O490   1.372       .  S
O488        H492   0.992       .  S
O490        H491   0.992       .  S
C493        C494   1.406       .  A
C493        C498   1.413       .  A
C494        C495   1.396       .  A
C494        H499   1.083       .  S
C495        C496   1.405       .  A
C495        O500   1.372       .  S
C496        C497   1.400       .  A
C497        C498   1.400       .  A
C497        H501   1.084       .  S
C498        O502   1.372       .  S
O500        H504   0.992       .  S
O502        H503   0.992       .  S
C505        C506   1.402       .  A
C505        C510   1.406       .  A
C506        C507   1.396       .  A
C506        H511   1.084       .  S
C507        C508   1.411       .  A
C507        O512   1.372       .  S
C508        C509   1.407       .  A
C509        C510   1.402       .  A
C509        H513   1.083       .  S
C510        O514   1.371       .  S
O512        H516   0.992       .  S
O514        H515   0.992       .  S
C517        C518   1.408       .  A
C517        C522   1.415       .  A
C518        C519   1.401       .  A
C518        H523   1.083       .  S
C519        C520   1.406       .  A
C519        O524   1.372       .  S
C520        C521   1.400       .  A
C521        C522   1.400       .  A
C521        H525   1.084       .  S
C522        O526   1.372       .  S
O524        H528   0.992       .  S
O526        H527   0.992       .  S
C529        C530   1.404       .  A
C529        C534   1.409       .  A
C530        C531   1.397       .  A
C530        H535   1.084       .  S
C531        C532   1.410       .  A
C531        O536   1.372       .  S
C532        C533   1.405       .  A
C533        C534   1.401       .  A
C533        H537   1.084       .  S
C534        O538   1.372       .  S
O536        H540   0.992       .  S
O538        H539   0.992       .  S
C541        C546   1.410       .  A
C542        C543   1.400       .  A
C542        H547   1.083       .  S
C543        O548   1.371       .  S
C544        C545   1.405       .  A
C545        C546   1.401       .  A
C545        H549   1.083       .  S
C546        O550   1.371       .  S
O548        H552   0.992       .  S
O550        H551   0.992       .  S
C553        C558   1.411   1_554  A
C554        C555   1.399       .  A
C554        H559   1.084       .  S
C555        O560   1.372       .  S
C556        C557   1.402   1_554  A
C557        C558   1.399       .  A
C557        H561   1.084       .  S
C558        O562   1.371       .  S
O560        H564   0.992       .  S
O562        H563   0.992   1_556  S
C565        C566   1.403       .  A
C565        C570   1.406       .  A
C566        C567   1.399       .  A
C566        H571   1.084       .  S
C567        C568   1.411       .  A
C567        O572   1.372       .  S
C568        C569   1.406       .  A
C569        C570   1.397       .  A
C569        H573   1.083       .  S
C570        O574   1.372       .  S
O572        H576   0.992       .  S
O574        H575   0.992       .  S
C577        C578   1.402       .  A
C577        C582   1.408       .  A
C578        C579   1.395       .  A
C578        H583   1.084       .  S
C579        C580   1.410       .  A
C579        O584   1.372       .  S
C580        C581   1.405       .  A
C581        C582   1.400       .  A
C581        H585   1.084       .  S
C582        O586   1.372       .  S
O584        H588   0.992       .  S
O586        H587   0.992       .  S
C589        C590   1.404       .  A
C590        C591   1.400       .  A
C590        H595   1.084       .  S
C591        C592   1.408       .  A
C591        O596   1.372       .  S
C593        C594   1.397       .  A
C593        H597   1.084       .  S
C594        O598   1.372       .  S
O596        H600   0.992       .  S
O598        H599   0.992       .  S
C601        C602   1.407       .  A
C601        C606   1.414       .  A
C602        C603   1.401       .  A
C602        H607   1.083       .  S
C603        C604   1.408       .  A
C603        O608   1.372       .  S
C604        C605   1.401       .  A
C605        C606   1.400       .  A
C605        H609   1.084       .  S
C606        O610   1.372       .  S
O608        H612   0.992       .  S
O610        H611   0.992       .  S
C613        C614   1.406       .  A
C613        C618   1.411       .  A
C614        C615   1.397       .  A
C614        H619   1.083       .  S
C615        C616   1.406       .  A
C615        O620   1.372       .  S
C616        C617   1.402       .  A
C617        C618   1.396       .  A
C617        H621   1.084       .  S
C618        O622   1.372       .  S
O620        H624   0.992       .  S
O622        H623   0.992       .  S
C625        C626   1.405       .  A
C625        C630   1.413       .  A
C626        C627   1.399       .  A
C626        H631   1.083       .  S
C627        C628   1.408       .  A
C627        O632   1.372       .  S
C628        C629   1.401       .  A
C629        C630   1.401       .  A
C629        H633   1.084       .  S
C630        O634   1.372       .  S
O632        H636   0.992       .  S
O634        H635   0.992       .  S
C637        C638   1.407       .  A
C637        C642   1.413       .  A
C638        C639   1.397       .  A
C638        H643   1.083       .  S
C639        C640   1.404       .  A
C639        O644   1.372       .  S
C640        C641   1.398       .  A
C641        C642   1.395       .  A
C641        H645   1.084       .  S
C642        O646   1.372       .  S
O644        H648   0.992       .  S
O646        H647   0.992       .  S
