geometry optimzed in LAMMPS
_audit_creation_date              2020-12-01 
_audit_creation_method            'lammps2cif' 
_symmetry_space_group_name_H-M    'P1' 
_symmetry_Int_Tables_number       1 
_symmetry_cell_setting            triclinic 
loop_ 
_symmetry_equiv_pos_as_xyz 
  x,y,z 
_cell_length_a                    41.61179693 
_cell_length_b                    41.66153356122905 
_cell_length_c                    40.39062113988244 
_cell_angle_alpha                 90.15658746352061 
_cell_angle_beta                  90.00916114079553 
_cell_angle_gamma                 67.10061945867317 
loop_ 
_atom_site_label 
_atom_site_type_symbol 
_atom_site_fract_x 
_atom_site_fract_y 
_atom_site_fract_z 
_atom_site_charge 
O1          O  0.09532781  0.46563571  0.06626391    -0.75300
O2          O  0.08811150  0.01733310  0.03505261    -0.54200
C3          C  0.10581572  0.49001417  0.05870890     0.78400
O4          O  0.02575099  0.40270286  0.43446112    -0.59900
O5          O  0.48247556  0.40400006  0.46307160    -0.52900
C6          C  0.50567133  0.39078836  0.44044160     0.70500
O7          O  0.09609341  0.46163422  0.43842599    -0.74400
O8          O  0.09029454  0.01465653  0.46479409    -0.55000
C9          C  0.10728068  0.48570615  0.44507976     0.76500
O10         O  0.02768112  0.40314525  0.06957535    -0.59600
O11         O  0.48234707  0.40465013  0.03782248    -0.52700
C12         C  0.50599719  0.39083192  0.05985379     0.73000
Zr13       Zr  0.04738836  0.44831341  0.05168681     2.54700
O14         O  0.09867941  0.39395170  0.05096143    -0.80200
O15         O  0.04737909  0.45098266  0.11196070    -0.93600
Zr16       Zr  0.04762609  0.44590707  0.45384324     2.64700
O17         O  0.09631752  0.39065420  0.46337446    -0.98500
O18         O  0.05593817  0.44108538  0.39413381    -0.80600
O19         O  0.06770251  0.46477991  0.00238248    -0.83900
O20         O  0.03074824  0.42716895  0.00274352    -2.18700
O21         O  0.41269713  0.02035787  0.06436366    -0.67300
O22         O  0.41860032  0.46969645  0.03829162    -0.51900
C23         C  0.40138058  0.99651267  0.05732207     0.71400
O24         O  0.48319965  0.07705454  0.43117521    -0.60200
O25         O  0.02297661  0.07908064  0.46322029    -0.52200
C26         C  0.99986614  0.09147747  0.44042712     0.73200
O27         O  0.41658604  0.01303283  0.43295063    -0.71600
O28         O  0.41866663  0.46468707  0.46303865    -0.50300
C29         C  0.40440384  0.99014451  0.44156521     0.74600
O30         O  0.47865261  0.08312258  0.06377539    -0.67000
O31         O  0.02539519  0.07913385  0.03302003    -0.54200
C32         C  0.00178054  0.09294940  0.05514738     0.73000
Zr33       Zr  0.45974570  0.03725799  0.04719534     2.77500
O34         O  0.40725178  0.09033873  0.04272064    -0.97700
O35         O  0.45864859  0.03740919  0.10747811    -0.78500
Zr36       Zr  0.46325195  0.03204040  0.44916182     2.70100
O37         O  0.41117498  0.08570321  0.44834363    -0.79800
O38         O  0.46713387  0.02670314  0.38910288    -0.98900
Zr39       Zr  0.03976013  0.02839387  0.99783854     2.21500
Zr40       Zr  0.46794760  0.45399551  0.49931736     2.11100
O41         O  0.44214365  0.01760940  0.49905669    -2.47600
O42         O  0.48103239  0.05305925  0.49766331    -0.79600
O43         O  0.48752197  0.47224245  0.05123313    -0.71800
O44         O  0.02323282  0.00764866  0.44940816    -2.32700
O45         O  0.02151692  0.01069291  0.04802404    -2.28900
O46         O  0.48501381  0.47210500  0.44883626    -0.73500
H47         H  0.03901175  0.40209822  0.00324495     0.78500
H48         H  0.03179174  0.01556066  0.43012156     0.79500
H49         H  0.41696695  0.02666112  0.49862873     0.81800
H50         H  0.02951029  0.01949306  0.06716261     0.79400
H51         H  0.03784333  0.46273664  0.38533507     0.42400
H52         H  0.47086221  0.00212475  0.38461257     0.41400
H53         H  0.40976915  0.09425139  0.42532421     0.41100
H54         H  0.41098556  0.10728798  0.05786865     0.39000
H55         H  0.48338823  0.02992363  0.11414906     0.42100
H56         H  0.02510916  0.44953101  0.11870027     0.36900
H57         H  0.10798898  0.39232827  0.02819295     0.43000
H58         H  0.10719269  0.38364648  0.44131007     0.39400
H59         H  0.40850999  0.09925756  0.02027040     0.44400
H60         H  0.04424735  0.47524007  0.11723976     0.43100
H61         H  0.11338109  0.39688697  0.47614369     0.43200
H62         H  0.44316890  0.04033420  0.38116434     0.43600
C63         C  0.00680477  0.26843315  0.12853691     0.80200
N64         N  0.00636639  0.24072419  0.11093599    -0.78100
C65         C  0.00557534  0.21224909  0.12667796     0.82700
N66         N  0.00494965  0.21180347  0.16032794    -0.78000
C67         C  0.00547684  0.23925234  0.17816726     0.82800
N68         N  0.00643942  0.26732490  0.16205038    -0.79700
C69         C  0.99889931  0.27118431  0.37212721     0.80200
N70         N  0.99751299  0.24339989  0.38875144    -0.78100
C71         C  0.99814836  0.21467493  0.37216248     0.82700
N72         N  0.00004154  0.21422059  0.33852657    -0.78000
C73         C  0.00164474  0.24169428  0.32157748     0.82800
N74         N  0.00115472  0.26999955  0.33858901    -0.79700
C75         C  0.28224658  0.49481497  0.12790817     0.80200
N76         N  0.28134270  0.49547461  0.16152657    -0.78100
C77         C  0.25358601  0.49403853  0.17812855     0.82700
N78         N  0.22670608  0.49159297  0.16081029    -0.78000
C79         C  0.22710180  0.49132392  0.12728725     0.82800
N80         N  0.25476978  0.49316139  0.11088745    -0.79700
C81         C  0.28487768  0.48182150  0.37098473     0.80200
N82         N  0.28308974  0.48474273  0.33751411    -0.78100
C83         C  0.25425503  0.48603459  0.32094747     0.82700
N84         N  0.22678075  0.48480051  0.33822142    -0.78000
C85         C  0.22803603  0.48217731  0.37174025     0.82800
N86         N  0.25714608  0.48078733  0.38799105    -0.79700
C87         C  0.25304667  0.49358604  0.21471021    -0.05500
C88         C  0.23208415  0.47897015  0.23083616    -0.32900
C89         C  0.23201580  0.47652169  0.26528776     0.36400
C90         C  0.25289414  0.48916608  0.28446711    -0.05800
C91         C  0.27336563  0.50443232  0.26839877    -0.32800
C92         C  0.27343031  0.50689076  0.23388422     0.36300
H93         H  0.21627351  0.46845596  0.21669031     0.16600
O94         O  0.21212176  0.46082202  0.27978026    -0.60300
H95         H  0.30524298  0.99031954  0.28075895     0.16600
O96         O  0.31281551  0.99072080  0.21739697    -0.60400
H97         H  0.31247020  0.01465990  0.21746587     0.43600
H98         H  0.22709116  0.43558705  0.27992195     0.43600
C99         C  0.00328218  0.24093869  0.28488141    -0.05500
C100        C  0.99004602  0.21963031  0.26725889    -0.32900
C101        C  0.99048561  0.21878781  0.23261997     0.36400
C102        C  0.00487519  0.23907329  0.21482309    -0.05800
C103        C  0.51352784  0.26478681  0.23279172    -0.32800
C104        C  0.51339425  0.26553149  0.26732158     0.36300
H105        H  0.97860695  0.20399542  0.28034733     0.16600
O106        O  0.97615895  0.19850999  0.21651796    -0.60300
H107        H  0.51758791  0.28558916  0.21977703     0.16600
O108        O  0.51922258  0.29205068  0.28293151    -0.60400
H109        H  0.49627435  0.31196766  0.28321182     0.43600
H110        H  0.95109721  0.21359675  0.21392469     0.43600
C111        C  0.99758280  0.18365144  0.39027669    -0.05500
C112        C  0.50573181  0.15120478  0.37212273    -0.32900
C113        C  0.50583897  0.12130724  0.38789671     0.36400
C114        C  0.99879345  0.12300238  0.42298932    -0.05800
C115        C  0.99857232  0.15175512  0.44123508    -0.32800
C116        C  0.99737920  0.18206341  0.42529470     0.36300
H117        H  0.50515533  0.15184461  0.34531874     0.16600
O118        O  0.50643612  0.09353474  0.36918238    -0.60300
H119        H  0.99878122  0.15092307  0.46805753     0.16600
O120        O  0.99646886  0.20966390  0.44437323    -0.60400
H121        H  0.97150222  0.22246872  0.45001614     0.44200
H122        H  0.48230256  0.10025997  0.36078830     0.43600
C123        C  0.99884409  0.30228730  0.39012615    -0.05500
C124        C  0.01559417  0.32240697  0.37595250    -0.32900
C125        C  0.01663607  0.35161682  0.39234829     0.36400
C126        C  0.00012351  0.36178184  0.42339593    -0.05800
C127        C  0.48870345  0.33957008  0.43680101    -0.32800
C128        C  0.48917862  0.30929076  0.42132592     0.36300
H129        H  0.02844239  0.31523178  0.35214580     0.16600
O130        O  0.03297187  0.37059444  0.37720542    -0.60300
H131        H  0.47480130  0.34744779  0.45998851     0.16600
O132        O  0.47139554  0.29121025  0.43554401    -0.60400
H133        H  0.48612215  0.27849549  0.45436743     0.43600
H134        H  0.05809510  0.35820103  0.38239731     0.43600
C135        C  0.00447850  0.18220863  0.10763775    -0.05500
C136        C  0.48948682  0.16217931  0.12269357    -0.32900
C137        C  0.48838686  0.13324040  0.10610187     0.36400
C138        C  0.00222336  0.12378956  0.07325769    -0.05800
C139        C  0.01749306  0.14504508  0.05863441    -0.32800
C140        C  0.01849771  0.17414187  0.07541204     0.36300
H141        H  0.47802104  0.16827834  0.14717502     0.16600
O142        O  0.47322940  0.11339462  0.12161814    -0.60300
H143        H  0.02864323  0.13919744  0.03401461     0.16600
O144        O  0.03464505  0.19349620  0.06063827    -0.60400
H145        H  0.01724804  0.20903094  0.04491399     0.43600
H146        H  0.49247954  0.09522211  0.13372053     0.43600
C147        C  0.00664289  0.29995341  0.11141951    -0.05500
C148        C  0.99954907  0.30387410  0.07733006    -0.32900
C149        C  0.49663283  0.33485433  0.06122126     0.36400
C150        C  0.00512419  0.35980133  0.07767987    -0.05800
C151        C  0.01259865  0.35589612  0.11157961    -0.32800
C152        C  0.01286105  0.32664773  0.12860012     0.36300
H153        H  0.49062901  0.28634173  0.06500022     0.16600
O154        O  0.48778190  0.33828152  0.02835468    -0.60300
H155        H  0.01775268  0.37588951  0.12510801     0.16600
O156        O  0.01992271  0.32430768  0.16187706    -0.60400
H157        H  0.99722814  0.33765920  0.17275595     0.43600
H158        H  0.46191857  0.34882220  0.02799783     0.43600
C159        C  0.37461008  0.48509670  0.42192277    -0.05500
C160        C  0.35528502  0.46735563  0.43601026    -0.32900
C161        C  0.32607002  0.46593449  0.41982828     0.36400
C162        C  0.31609460  0.48175560  0.38861364    -0.05800
C163        C  0.33599898  0.49851706  0.37410652    -0.32800
C164        C  0.36626353  0.00198513  0.39068840     0.36300
H165        H  0.36242263  0.45498934  0.45997371     0.16600
O166        O  0.30814572  0.44813321  0.43432757    -0.60300
H167        H  0.33163816  0.01174130  0.34935070     0.16600
O168        O  0.38836202  0.01353771  0.37394882    -0.60400
H169        H  0.37773082  0.03929059  0.37595973     0.43600
H170        H  0.29233733  0.46461255  0.45063054     0.43600
C171        C  0.13875481  0.48434318  0.42706372    -0.05500
C172        C  0.14538064  0.46955401  0.39522136    -0.32900
C173        C  0.17415335  0.46879423  0.37685753     0.36400
C174        C  0.19749038  0.48227808  0.39054802    -0.05800
C175        C  0.18863402  0.00313087  0.42354705    -0.32800
C176        C  0.15993864  0.00288179  0.44144844     0.36300
H177        H  0.12783161  0.45900141  0.38416974     0.16600
O178        O  0.17984264  0.45368297  0.34603826    -0.60300
H179        H  0.20607361  0.01339806  0.43526620     0.16600
O180        O  0.15517651  0.01489286  0.47343815    -0.60400
H181        H  0.16770115  0.99411452  0.48725866     0.43600
H182        H  0.16227794  0.47071784  0.33143859     0.43600
C183        C  0.37436548  0.49356644  0.07839471    -0.05500
C184        C  0.34781074  0.98343160  0.05996408    -0.32900
C185        C  0.31753454  0.98446311  0.07587135     0.36400
C186        C  0.31345957  0.49476070  0.11027519    -0.05800
C187        C  0.33626496  0.50713057  0.12653955    -0.32800
C188        C  0.36650137  0.50650908  0.11096346     0.36300
H189        H  0.35390109  0.97176356  0.03555224     0.16600
O190        O  0.29671646  0.97057186  0.06007199    -0.60300
H191        H  0.33073970  0.51731425  0.15153314     0.16600
O192        O  0.38837302  0.51815791  0.12804823    -0.60400
H193        H  0.40556623  0.49717778  0.13891601     0.43600
H194        H  0.30724106  0.94528866  0.06501323     0.43600
C195        C  0.19728629  0.48974706  0.10896999    -0.05500
C196        C  0.18020511  0.01607485  0.08129888    -0.32900
C197        C  0.15041791  0.01691482  0.06466842     0.36400
C198        C  0.13740961  0.49027579  0.07571046    -0.05800
C199        C  0.15273484  0.46633126  0.10133340    -0.32800
C200        C  0.18230580  0.46604955  0.11793971     0.36300
H201        H  0.19395739  0.03154229  0.07192145     0.16600
O202        O  0.13935826  0.03795424  0.03746511    -0.60300
H203        H  0.14174015  0.44778088  0.10877115     0.16600
O204        O  0.19654428  0.44229943  0.14273929    -0.60400
H205        H  0.21501403  0.42217108  0.13185081     0.43600
H206        H  0.12374329  0.06099623  0.04630990     0.43600
O207        O  0.09177091  0.46876081  0.56704240    -0.75300
O208        O  0.08805042  0.01744768  0.53602144    -0.54200
C209        C  0.10323148  0.49246791  0.55928778     0.78400
O210        O  0.02873460  0.40160366  0.93307832    -0.59900
O211        O  0.47919398  0.40492884  0.96549202    -0.52900
C212        C  0.50098659  0.39204639  0.94169816     0.70500
O213        O  0.09835465  0.46116472  0.94049365    -0.74400
O214        O  0.09139736  0.01287732  0.96368829    -0.55000
C215        C  0.10935499  0.48523305  0.94767174     0.76500
O216        O  0.02408646  0.40474379  0.56784295    -0.59600
O217        O  0.48474885  0.40370747  0.53504851    -0.52700
C218        C  0.50817215  0.39143239  0.55754434     0.73000
Zr219      Zr  0.04417645  0.45055217  0.55187736     2.54700
O220        O  0.09667927  0.39752293  0.55598672    -0.80200
O221        O  0.03936861  0.45483500  0.61198472    -0.93600
Zr222      Zr  0.04976036  0.44494520  0.95348895     2.64700
O223        O  0.10015403  0.39000277  0.95805996    -0.98500
O224        O  0.05386537  0.44589357  0.89343979    -0.80600
O225        O  0.06569493  0.46595213  0.50258814    -0.83900
O226        O  0.02739149  0.42938808  0.50294989    -2.18700
O227        O  0.41435139  0.02032760  0.56582729    -0.67300
O228        O  0.41859424  0.46642773  0.53624200    -0.51900
C229        C  0.40254746  0.99675487  0.55890423     0.71400
O230        O  0.48346058  0.07904321  0.93087484    -0.60200
O231        O  0.02513342  0.07829157  0.96166449    -0.52200
C232        C  0.00181114  0.09148844  0.93921549     0.73200
O233        O  0.41559157  0.01720098  0.93218716    -0.71600
O234        O  0.41853424  0.46775498  0.96519826    -0.50300
C235        C  0.40348232  0.99411235  0.93988750     0.74600
O236        O  0.48151133  0.08340731  0.56203533    -0.67000
O237        O  0.02419356  0.07955825  0.53395295    -0.54200
C238        C  0.00040788  0.09333894  0.55587842     0.73000
Zr239      Zr  0.46131211  0.03723799  0.54754033     2.77500
O240        O  0.40991879  0.09107617  0.54163610    -0.97700
O241        O  0.46038203  0.04110247  0.60771637    -0.78500
Zr242      Zr  0.46259941  0.03465370  0.94901537     2.70100
O243        O  0.41074143  0.08854081  0.95007799    -0.79800
O244        O  0.46450455  0.03305209  0.88876725    -0.98900
Zr245      Zr  0.03908604  0.02871709  0.49915137     2.21500
Zr246      Zr  0.46813033  0.45448093  0.00165828     2.11100
O247        O  0.44134230  0.01846758  0.99801169    -2.47600
O248        O  0.47946998  0.05511405  0.99818002    -0.79600
O249        O  0.48553921  0.47357918  0.54887690    -0.71800
O250        O  0.02259397  0.00901309  0.94789357    -2.32700
O251        O  0.02059921  0.01158707  0.54950166    -2.28900
O252        O  0.48559591  0.47196854  0.95113866    -0.73500
H253        H  0.03543803  0.40432441  0.50352214     0.78500
H254        H  0.03118194  0.01704818  0.92869989     0.79500
H255        H  0.41616663  0.02746286  0.99752234     0.81800
H256        H  0.02818607  0.02095593  0.56852801     0.79400
H257        H  0.02932558  0.45643860  0.88588098     0.42400
H258        H  0.46750377  0.00895838  0.88291456     0.41400
H259        H  0.40230301  0.09184263  0.92691804     0.41100
H260        H  0.39099682  0.08364384  0.53485338     0.39000
H261        H  0.48523376  0.03066459  0.61432975     0.42100
H262        H  0.04968000  0.47174711  0.61831479     0.36900
H263        H  0.09242413  0.38070848  0.54105241     0.43000
H264        H  0.09127612  0.37379989  0.96891498     0.39400
H265        H  0.40386288  0.09978350  0.56457059     0.44400
H266        H  0.05632262  0.43211018  0.61999902     0.43100
H267        H  0.10513787  0.38133057  0.93501084     0.43200
H268        H  0.44043948  0.04765478  0.88174352     0.43600
C269        C  0.00282471  0.27032884  0.62745208     0.80200
N270        N  0.00287596  0.24236350  0.60997599    -0.78100
C271        C  0.00254571  0.21379138  0.62589316     0.82700
N272        N  0.00198264  0.21350209  0.65948634    -0.78000
C273        C  0.00195086  0.24114255  0.67725168     0.82800
N274        N  0.00225601  0.26946723  0.66100682    -0.79700
C275        C  0.00284553  0.26991777  0.87135172     0.80200
N276        N  0.00231623  0.24177027  0.88788642    -0.78100
C277        C  0.00226639  0.21340012  0.87123926     0.82700
N278        N  0.00258787  0.21353811  0.83760799    -0.78000
C279        C  0.00300634  0.24148081  0.82069060     0.82800
N280        N  0.00332878  0.26940848  0.83778242    -0.79700
C281        C  0.28340097  0.48841244  0.62861494     0.80200
N282        N  0.28396317  0.48683486  0.66219609    -0.78100
C283        C  0.25618270  0.48646637  0.67954084     0.82700
N284        N  0.22746142  0.48764560  0.66277076    -0.78000
C285        C  0.22627064  0.48943518  0.62921676     0.82800
N286        N  0.25426086  0.48998215  0.61220225    -0.79700
C287        C  0.28524825  0.48503890  0.87361581     0.80200
N288        N  0.28449451  0.48497175  0.84003021    -0.78100
C289        C  0.25670887  0.48331086  0.82353191     0.82700
N290        N  0.22942731  0.48217838  0.84120191    -0.78000
C291        C  0.22968394  0.48249081  0.87483643     0.82800
N292        N  0.25776307  0.48389253  0.89088879    -0.79700
C293        C  0.25697265  0.48484236  0.71636291    -0.05500
C294        C  0.22756485  0.48506970  0.73364631    -0.32900
C295        C  0.22706766  0.48406515  0.76826391     0.36400
C296        C  0.25634901  0.48305535  0.78666109    -0.05800
C297        C  0.28593748  0.48225032  0.76933081    -0.32800
C298        C  0.28641258  0.48333792  0.73475719     0.36300
H299        H  0.20452126  0.48620417  0.72038063     0.16600
O300        O  0.19738771  0.48492449  0.78363085    -0.60300
H301        H  0.29938313  0.00666833  0.78099010     0.16600
O302        O  0.30672682  0.00789416  0.71772663    -0.60400
H303        H  0.30277366  0.03286290  0.71560200     0.43600
H304        H  0.19805191  0.46095537  0.78139845     0.43600
C305        C  0.00244903  0.24166184  0.78399781    -0.05500
C306        C  0.01081953  0.21016658  0.76663047    -0.32900
C307        C  0.01014822  0.20949563  0.73201791     0.36400
C308        C  0.00159815  0.24069959  0.71394256    -0.05800
C309        C  0.50720366  0.26929886  0.73038418    -0.32800
C310        C  0.50476273  0.27077115  0.76492336     0.36300
H311        H  0.01813218  0.18576730  0.77986415     0.16600
O312        O  0.01899463  0.17799684  0.71627179    -0.60300
H313        H  0.50317721  0.29313367  0.71716141     0.16600
O314        O  0.49800132  0.30214128  0.78029703    -0.60400
H315        H  0.47232365  0.31480620  0.77913258     0.43600
H316        H  0.99743533  0.17320507  0.71641402     0.43600
C317        C  0.00158196  0.18259107  0.88926916    -0.05500
C318        C  0.50491599  0.15253504  0.87037038    -0.32900
C319        C  0.50497083  0.12281109  0.88656242     0.36400
C320        C  0.00154614  0.12256648  0.92174164    -0.05800
C321        C  0.00786574  0.14841224  0.93953132    -0.32800
C322        C  0.00749922  0.17839363  0.92376298     0.36300
H323        H  0.50203360  0.15391208  0.84369717     0.16600
O324        O  0.50256961  0.09604046  0.86825326    -0.60300
H325        H  0.01270206  0.14557826  0.96594952     0.16600
O326        O  0.01387439  0.20285770  0.94232567    -0.60400
H327        H  0.99165917  0.21594307  0.95408830     0.44200
H328        H  0.47738654  0.10327958  0.86329856     0.43600
C329        C  0.00275493  0.30107644  0.88939790    -0.05500
C330        C  0.01035632  0.32663649  0.87214435    -0.32900
C331        C  0.01100488  0.35607036  0.88846357     0.36400
C332        C  0.00334208  0.36075153  0.92249654    -0.05800
C333        C  0.48764975  0.33852369  0.93894277    -0.32800
C334        C  0.48795363  0.30872127  0.92247501     0.36300
H335        H  0.01611984  0.32380546  0.84589059     0.16600
O336        O  0.01764229  0.38081332  0.87064363    -0.60300
H337        H  0.47900976  0.34278930  0.96441815     0.16600
O338        O  0.47617735  0.28658896  0.93882069    -0.60400
H339        H  0.49440020  0.27457838  0.95546412     0.43600
H340        H  0.04337803  0.37163958  0.86826798     0.43600
C341        C  0.00200743  0.18333769  0.60725038    -0.05500
C342        C  0.49862655  0.15988519  0.62133466    -0.32900
C343        C  0.49567521  0.13174544  0.60467830     0.36400
C344        C  0.00061603  0.12428162  0.57368247    -0.05800
C345        C  0.01346428  0.14689492  0.55790288    -0.32800
C346        C  0.01410609  0.17628574  0.57432323     0.36300
H347        H  0.48896130  0.16522503  0.64649971     0.16600
O348        O  0.48096699  0.11194773  0.62091872    -0.60300
H349        H  0.02295874  0.14187089  0.53265501     0.16600
O350        O  0.02798603  0.19698599  0.55840127    -0.60400
H351        H  0.00892122  0.21271011  0.54422800     0.43600
H352        H  0.50061814  0.09353836  0.63234037     0.43600
C353        C  0.00255274  0.30177495  0.61014363    -0.05500
C354        C  0.99118572  0.30777741  0.57713226    -0.32900
C355        C  0.50770720  0.33160104  0.55753628     0.36400
C356        C  0.00069288  0.36186060  0.57635887    -0.05800
C357        C  0.01241574  0.35569121  0.60918961    -0.32800
C358        C  0.01307762  0.32626503  0.62618959     0.36300
H359        H  0.50854274  0.28010711  0.56045316     0.16600
O360        O  0.50443217  0.33253578  0.52373434    -0.60300
H361        H  0.02089798  0.37394425  0.62193289     0.16600
O362        O  0.02523998  0.32122128  0.65811572    -0.60400
H363        H  0.00515407  0.33579444  0.67197745     0.43600
H364        H  0.47929355  0.33842222  0.51958603     0.43600
C365        C  0.37405455  0.48985176  0.92462513    -0.05500
C366        C  0.35783893  0.46794181  0.93603723    -0.32900
C367        C  0.32888168  0.46628455  0.91972168     0.36400
C368        C  0.31572403  0.48639855  0.89120533    -0.05800
C369        C  0.33204843  0.50783029  0.87930461    -0.32800
C370        C  0.36203173  0.01191399  0.89129740     0.36300
H371        H  0.36753153  0.45192323  0.95778728     0.16600
O372        O  0.31471490  0.44357232  0.93088262    -0.60300
H373        H  0.32518657  0.02539066  0.85158138     0.16600
O374        O  0.38214094  0.02678558  0.87579318    -0.60400
H375        H  0.37079688  0.05203484  0.88088496     0.43600
H376        H  0.29951351  0.45565031  0.94973434     0.43600
C377        C  0.14085987  0.48386140  0.93025744    -0.05500
C378        C  0.14558861  0.47237589  0.89735170    -0.32900
C379        C  0.17424558  0.47168257  0.87909784     0.36400
C380        C  0.19937774  0.48212245  0.89387440    -0.05800
C381        C  0.18975899  0.00109480  0.92360514    -0.32800
C382        C  0.16156492  0.99952343  0.94131711     0.36300
H383        H  0.12652553  0.46446613  0.88535026     0.16600
O384        O  0.17773489  0.45986026  0.84706649    -0.60300
H385        H  0.20739145  0.01059847  0.93608460     0.16600
O386        O  0.15763449  0.00924081  0.97397074    -0.60400
H387        H  0.16966952  0.98736587  0.98648197     0.43600
H388        H  0.15917228  0.47831782  0.83452605     0.43600
C389        C  0.37474287  0.48800816  0.57745988    -0.05500
C390        C  0.34891816  0.98388831  0.56155488    -0.32900
C391        C  0.31859116  0.98511269  0.57742547     0.36400
C392        C  0.31459027  0.48817031  0.61048980    -0.05800
C393        C  0.33880589  0.49845439  0.62705106    -0.32800
C394        C  0.36855005  0.49846422  0.61088997     0.36300
H395        H  0.35508550  0.97193177  0.53726457     0.16600
O396        O  0.29822640  0.97039932  0.56206048    -0.60300
H397        H  0.33459663  0.50685050  0.65266337     0.16600
O398        O  0.39144221  0.50859735  0.62814967    -0.60400
H399        H  0.41040735  0.48661610  0.63530336     0.43600
H400        H  0.30825323  0.94553315  0.56867454     0.43600
C401        C  0.19481890  0.49037611  0.61149607    -0.05500
C402        C  0.17881364  0.01955517  0.58224622    -0.32900
C403        C  0.14922460  0.01946283  0.56587861     0.36400
C404        C  0.13447034  0.49268661  0.57725887    -0.05800
C405        C  0.14689076  0.47118545  0.60510466    -0.32800
C406        C  0.17652014  0.47009040  0.62221616     0.36300
H407        H  0.19076587  0.03700710  0.57382098     0.16600
O408        O  0.13620133  0.04189364  0.53989711    -0.60300
H409        H  0.13362168  0.45501532  0.61381653     0.16600
O410        O  0.18766420  0.44857361  0.64912786    -0.60400
H411        H  0.20654227  0.42716157  0.64063247     0.43600
H412        H  0.12006949  0.06399231  0.55007014     0.43600
O413        O  0.09230348  0.96953396  0.06477369    -0.75300
O414        O  0.09078097  0.51407364  0.03746912    -0.54200
C415        C  0.10238254  0.99426791  0.05734442     0.78400
O416        O  0.02975386  0.90113516  0.43393308    -0.59900
O417        O  0.47841870  0.90590173  0.46520465    -0.52900
C418        C  0.49987345  0.89346486  0.44105778     0.70500
O419        O  0.09588056  0.96480447  0.43741146    -0.74400
O420        O  0.09261000  0.51102044  0.46546272    -0.55000
C421        C  0.10578955  0.98971056  0.44436166     0.76500
O422        O  0.02773902  0.90318415  0.06502286    -0.59600
O423        O  0.47909440  0.90654205  0.03533199    -0.52700
C424        C  0.50240693  0.89287190  0.05767520     0.73000
Zr425      Zr  0.04696932  0.94898982  0.04777886     2.54700
O426        O  0.10045892  0.89681578  0.04399627    -0.80200
O427        O  0.04794532  0.94735622  0.10805332    -0.93600
Zr428      Zr  0.04944293  0.94599817  0.45280034     2.64700
O429        O  0.10074985  0.89240680  0.46025814    -0.98500
O430        O  0.05535728  0.94197524  0.39284013    -0.80600
O431        O  0.06630431  0.96643402  0.99840852    -0.83900
O432        O  0.02935793  0.92868173  0.99886882    -2.18700
O433        O  0.41782712  0.51615886  0.06876727    -0.67300
O434        O  0.41535189  0.97209563  0.03583866    -0.51900
C435        C  0.40573951  0.49302713  0.06084664     0.71400
O436        O  0.47515503  0.58215832  0.43230840    -0.60200
O437        O  0.02801144  0.57695646  0.46264603    -0.52200
C438        C  0.00486754  0.59036312  0.44004042     0.73200
O439        O  0.41497499  0.51167049  0.43218557    -0.71600
O440        O  0.41688966  0.96803721  0.46506663    -0.50300
C441        C  0.40472520  0.48724215  0.44017067     0.74600
O442        O  0.48446251  0.58014348  0.06469530    -0.67000
O443        O  0.02754982  0.57796134  0.03473717    -0.54200
C444        C  0.00347699  0.59254850  0.05622355     0.73000
Zr445      Zr  0.46424437  0.53405006  0.05044877     2.77500
O446        O  0.41171550  0.58730109  0.05069119    -0.97700
O447        O  0.46733022  0.53353102  0.11068900    -0.78500
Zr448      Zr  0.45913855  0.53380659  0.44869700     2.70100
O449        O  0.40433336  0.58461620  0.44658089    -0.79800
O450        O  0.46411293  0.53012975  0.38861403    -0.98900
Zr451      Zr  0.04187619  0.52667245  0.00053911     2.21500
Zr452      Zr  0.46630028  0.95560703  0.50146436     2.11100
O453        O  0.44048867  0.51597575  0.49841458    -2.47600
O454        O  0.47595933  0.55482171  0.49773326    -0.79600
O455        O  0.48304542  0.97558790  0.04948149    -0.71800
O456        O  0.02416570  0.50760637  0.45023176    -2.32700
O457        O  0.02278227  0.51010078  0.05083600    -2.28900
O458        O  0.48641706  0.97051172  0.45101352    -0.73500
H459        H  0.03794104  0.90357347  0.99904522     0.78500
H460        H  0.03342895  0.51478366  0.43096219     0.79500
H461        H  0.41539250  0.52364717  0.49850480     0.81800
H462        H  0.03070340  0.51911762  0.06988933     0.79400
H463        H  0.03332485  0.95990896  0.38451418     0.42400
H464        H  0.46588730  0.50631427  0.38315553     0.41400
H465        H  0.39302160  0.58185317  0.42580285     0.41100
H466        H  0.41249675  0.59868611  0.07205961     0.39000
H467        H  0.49174902  0.52997044  0.11582389     0.42100
H468        H  0.05022746  0.96918916  0.11497763     0.36900
H469        H  0.09602225  0.87905258  0.05732340     0.43000
H470        H  0.11222274  0.88774131  0.43828604     0.39400
H471        H  0.41613976  0.60225856  0.03377735     0.44400
H472        H  0.07071903  0.92869168  0.11361575     0.43100
H473        H  0.11649013  0.89919096  0.47444647     0.43200
H474        H  0.44078971  0.54562035  0.38047463     0.43600
C475        C  0.00955258  0.76822532  0.12683458     0.80200
N476        N  0.00875391  0.74048885  0.10962684    -0.78100
C477        C  0.00892830  0.71187404  0.12574418     0.82700
N478        N  0.00950380  0.71140076  0.15933966    -0.78000
C479        C  0.01009117  0.73893507  0.17694367     0.82800
N480        N  0.01016682  0.76726859  0.16044494    -0.79700
C481        C  0.00499483  0.76891828  0.37174201     0.80200
N482        N  0.00456446  0.74061156  0.38799254    -0.78100
C483        C  0.00526734  0.71211643  0.37112246     0.82700
N484        N  0.00629561  0.71221272  0.33747852    -0.78000
C485        C  0.00698139  0.74023859  0.32077311     0.82800
N486        N  0.00628378  0.76840870  0.33816030    -0.79700
C487        C  0.27852228  0.99883802  0.12635965     0.80200
N488        N  0.27920704  0.99830395  0.15999400    -0.78100
C489        C  0.25203807  0.99688581  0.17764778     0.82700
N490        N  0.22391051  0.99610458  0.16119305    -0.78000
C491        C  0.22265987  0.99687881  0.12765991     0.82800
N492        N  0.25002417  0.99833190  0.11029182    -0.79700
C493        C  0.28222767  0.99025624  0.37206707     0.80200
N494        N  0.28112064  0.99192148  0.33845933    -0.78100
C495        C  0.25240404  0.99316218  0.32158273     0.82700
N496        N  0.22458549  0.99277940  0.33884217    -0.78000
C497        C  0.22515401  0.99122220  0.37240506     0.82800
N498        N  0.25401435  0.99012357  0.38888697    -0.79700
C499        C  0.25266745  0.99618753  0.21445669    -0.05500
C500        C  0.22264860  0.99812020  0.23171204    -0.32900
C501        C  0.22204626  0.99706631  0.26627684     0.36400
C502        C  0.25183124  0.99442596  0.28472777    -0.05800
C503        C  0.28184743  0.99261734  0.26745969    -0.32800
C504        C  0.28249390  0.99347404  0.23283085     0.36300
H505        H  0.19923920  0.00037396  0.21845133     0.16600
O506        O  0.19189679  0.99908875  0.28154918    -0.60300
H507        H  0.28929943  0.51472400  0.28264186     0.16600
O508        O  0.29345957  0.52241845  0.21930085    -0.60400
H509        H  0.27776537  0.54729275  0.21689281     0.43600
H510        H  0.19118491  0.97573339  0.27854748     0.43600
C511        C  0.00840693  0.73999417  0.28397754    -0.05500
C512        C  0.00192971  0.71402076  0.26634419    -0.32900
C513        C  0.00246216  0.71317976  0.23173756     0.36400
C514        C  0.00989845  0.73852746  0.21374350    -0.05800
C515        C  0.50173704  0.77108959  0.23055928    -0.32800
C516        C  0.49990465  0.77258590  0.26511302     0.36300
H517        H  0.99593669  0.69432791  0.27936284     0.16600
O518        O  0.99547023  0.68742795  0.21596424    -0.60300
H519        H  0.49983512  0.79433883  0.21734634     0.16600
O520        O  0.49551832  0.80344066  0.28041629    -0.60400
H521        H  0.46990244  0.81629901  0.28222947     0.43600
H522        H  0.96984684  0.69726181  0.21257517     0.43600
C523        C  0.00522357  0.68107467  0.38912962    -0.05500
C524        C  0.48910655  0.66041387  0.37229310    -0.32900
C525        C  0.48818918  0.63108911  0.38845425     0.36400
C526        C  0.00528277  0.62111617  0.42206859    -0.05800
C527        C  0.01612844  0.64484230  0.43852729    -0.32800
C528        C  0.01582943  0.67474958  0.42255198     0.36300
H529        H  0.48096700  0.66465495  0.34664312     0.16600
O530        O  0.47860489  0.60794095  0.37098766    -0.60300
H531        H  0.02447367  0.64048136  0.46412727     0.16600
O532        O  0.02732558  0.69680684  0.43951942    -0.60400
H533        H  0.00942350  0.70786806  0.45677158     0.44200
H534        H  0.45275966  0.61861050  0.37014792     0.43600
C535        C  0.00490361  0.79983782  0.39020822    -0.05500
C536        C  0.01272593  0.82541735  0.37331343    -0.32900
C537        C  0.01362699  0.85451944  0.38995332     0.36400
C538        C  0.00590057  0.85895610  0.42399178    -0.05800
C539        C  0.48880192  0.83899380  0.43919652    -0.32800
C540        C  0.48968509  0.80886205  0.42313572     0.36300
H541        H  0.01853109  0.82284998  0.34707204     0.16600
O542        O  0.02070689  0.87916986  0.37241536    -0.60300
H543        H  0.48163771  0.84265140  0.46510934     0.16600
O544        O  0.48031719  0.78564306  0.44055767    -0.60400
H545        H  0.50047433  0.77315506  0.45515541     0.43600
H546        H  0.04648377  0.86982833  0.37037770     0.43600
C547        C  0.00734140  0.68178648  0.10724020    -0.05500
C548        C  0.50156071  0.65618618  0.12359315    -0.32900
C549        C  0.50052624  0.62703581  0.10741538     0.36400
C550        C  0.00405758  0.62348494  0.07376445    -0.05800
C551        C  0.01723166  0.64569587  0.05775434    -0.32800
C552        C  0.01861021  0.67483019  0.07405880     0.36300
H553        H  0.49363892  0.66016905  0.14932130     0.16600
O554        O  0.49018599  0.60445903  0.12481098    -0.60300
H555        H  0.02634182  0.64058644  0.03239536     0.16600
O556        O  0.03226191  0.69545638  0.05768687    -0.60400
H557        H  0.01269198  0.71179861  0.04442623     0.43600
H558        H  0.51210776  0.58574995  0.13248866     0.43600
C559        C  0.00854072  0.79962383  0.10909087    -0.05500
C560        C  0.99237576  0.80765958  0.07795705    -0.32900
C561        C  0.49349409  0.83639945  0.05859744     0.36400
C562        C  0.00521963  0.85981848  0.07456561    -0.05800
C563        C  0.02176687  0.85145717  0.10552903    -0.32800
C564        C  0.02324282  0.82192380  0.12286640     0.36300
H565        H  0.48876209  0.78710569  0.06229959     0.16600
O566        O  0.48408347  0.84010865  0.02585248    -0.60300
H567        H  0.03356286  0.86797024  0.11656650     0.16600
O568        O  0.04043930  0.81437206  0.15262090    -0.60400
H569        H  0.02373261  0.82977261  0.16900934     0.43600
H570        H  0.45822213  0.85091376  0.02589847     0.43600
C571        C  0.37369430  0.98933972  0.42334243    -0.05500
C572        C  0.35138912  0.97569114  0.43865200    -0.32900
C573        C  0.32164612  0.97564074  0.42237495     0.36400
C574        C  0.31381452  0.98911295  0.38998928    -0.05800
C575        C  0.33673543  0.00168118  0.37435543    -0.32800
C576        C  0.36461944  0.50070280  0.39056135     0.36300
H577        H  0.35673321  0.96535332  0.46355360     0.16600
O578        O  0.30120599  0.96119012  0.43795358    -0.60300
H579        H  0.32890418  0.51081074  0.35010551     0.16600
O580        O  0.38302357  0.51756727  0.37529818    -0.60400
H581        H  0.36976809  0.54266811  0.38001327     0.43600
H582        H  0.28548358  0.97980868  0.45262794     0.43600
C583        C  0.13675886  0.98984224  0.42673473    -0.05500
C584        C  0.14320623  0.97664133  0.39438186    -0.32900
C585        C  0.17162006  0.97716456  0.37635245     0.36400
C586        C  0.19469789  0.99054250  0.39085166    -0.05800
C587        C  0.19126373  0.49646346  0.42264441    -0.32800
C588        C  0.16217269  0.49767542  0.44080961     0.36300
H589        H  0.12583262  0.96624532  0.38271303     0.16600
O590        O  0.17732248  0.96320621  0.34505791    -0.60300
H591        H  0.20880325  0.50706150  0.43362917     0.16600
O592        O  0.15717268  0.51158390  0.47209245    -0.60400
H593        H  0.17043473  0.49185808  0.48682890     0.43600
H594        H  0.15807922  0.97943456  0.33138420     0.43600
C595        C  0.36975821  0.99764018  0.07500018    -0.05500
C596        C  0.35174291  0.48094484  0.06222536    -0.32900
C597        C  0.32164296  0.48135294  0.07783880     0.36400
C598        C  0.30901097  0.99931024  0.10774768    -0.05800
C599        C  0.33080720  0.01377063  0.12266448    -0.32800
C600        C  0.36071471  0.01330805  0.10655360     0.36300
H601        H  0.35727296  0.47082073  0.03720049     0.16600
O602        O  0.30077992  0.46809860  0.06119320    -0.60300
H603        H  0.32461503  0.02565185  0.14698415     0.16600
O604        O  0.38091681  0.02814964  0.12204866    -0.60400
H605        H  0.39737461  0.00945309  0.13606405     0.43600
H606        H  0.30931471  0.44324982  0.06777418     0.43600
C607        C  0.19156549  0.99655741  0.11028861    -0.05500
C608        C  0.18274166  0.51313060  0.08308571    -0.32900
C609        C  0.15276979  0.51399635  0.06683136     0.36400
C610        C  0.13248868  0.99623816  0.07581536    -0.05800
C611        C  0.14372687  0.97707905  0.10518874    -0.32800
C612        C  0.17259829  0.97753839  0.12261086     0.36300
H613        H  0.19404000  0.53159120  0.07609861     0.16600
O614        O  0.13894976  0.53813605  0.04228126    -0.60300
H615        H  0.12999492  0.96175454  0.11491448     0.16600
O616        O  0.18217649  0.95899219  0.15149258    -0.60400
H617        H  0.20057664  0.93629506  0.14505985     0.43600
H618        H  0.12363320  0.55970385  0.05384679     0.43600
O619        O  0.09268342  0.97021790  0.56683872    -0.75300
O620        O  0.08946080  0.51582595  0.53709627    -0.54200
C621        C  0.10273836  0.99468057  0.55851347     0.78400
O622        O  0.02762424  0.90204924  0.93118405    -0.59900
O623        O  0.47949171  0.90589658  0.96353412    -0.52900
C624        C  0.50322350  0.89184018  0.94147593     0.70500
O625        O  0.09571096  0.96395065  0.93526742    -0.74400
O626        O  0.09428126  0.51067470  0.96769724    -0.55000
C627        C  0.10645416  0.98812006  0.94290928     0.76500
O628        O  0.02971116  0.90314269  0.56880689    -0.59600
O629        O  0.47888987  0.90645862  0.53811520    -0.52700
C630        C  0.50215841  0.89249964  0.56041550     0.73000
Zr631      Zr  0.04719231  0.94987335  0.55084778     2.54700
O632        O  0.10045192  0.89739349  0.54791738    -0.80200
O633        O  0.04713988  0.95129180  0.61115471    -0.93600
Zr634      Zr  0.04743979  0.94724095  0.94949454     2.64700
O635        O  0.09769584  0.89209921  0.95278125    -0.98500
O636        O  0.05030596  0.94857345  0.88932876    -0.80600
O637        O  0.06678945  0.96694580  0.50139151    -0.83900
O638        O  0.03114425  0.92779752  0.50221940    -2.18700
O639        O  0.41579433  0.51342393  0.56700106    -0.67300
O640        O  0.41600801  0.97231005  0.53744883    -0.51900
C641        C  0.40514127  0.48921679  0.55919239     0.71400
O642        O  0.48145473  0.57932944  0.93429432    -0.60200
O643        O  0.02839243  0.57550539  0.96307200    -0.52200
C644        C  0.00512581  0.58858616  0.94052193     0.73200
O645        O  0.41576986  0.51488410  0.93516712    -0.71600
O646        O  0.41652200  0.97064024  0.96223371    -0.50300
C647        C  0.40475157  0.49093553  0.94278658     0.74600
O648        O  0.47555101  0.58345765  0.56267714    -0.67000
O649        O  0.02596931  0.57936727  0.53443267    -0.54200
C650        C  0.00188856  0.59393045  0.55599735     0.73000
Zr651      Zr  0.45896613  0.53527140  0.54736479     2.77500
O652        O  0.40323128  0.58489353  0.54506539    -0.97700
O653        O  0.46066333  0.53748148  0.60754176    -0.78500
Zr654      Zr  0.46214701  0.53369736  0.95185673     2.70100
O655        O  0.40948574  0.58673971  0.95473681    -0.79800
O656        O  0.46258379  0.53288964  0.89157675    -0.98900
Zr657      Zr  0.04080113  0.52796197  0.49990193     2.21500
Zr658      Zr  0.46575000  0.95641231  0.99947624     2.11100
O659        O  0.44334913  0.51658727  0.00175046    -2.47600
O660        O  0.48153621  0.55266143  0.00055767    -0.79600
O661        O  0.48384042  0.97542350  0.55092480    -0.71800
O662        O  0.02526083  0.50656156  0.95075028    -2.32700
O663        O  0.02056439  0.51221957  0.55012825    -2.28900
O664        O  0.48573960  0.97278093  0.94958651    -0.73500
H665        H  0.04007158  0.90267481  0.50283341     0.78500
H666        H  0.03429121  0.51411418  0.93153936     0.79500
H667        H  0.41816827  0.52546087  0.00215821     0.81800
H668        H  0.02842103  0.52118235  0.56926199     0.79400
H669        H  0.07358691  0.93077338  0.88367539     0.42400
H670        H  0.46421561  0.50924695  0.88555376     0.41400
H671        H  0.39907469  0.58909461  0.93237510     0.41100
H672        H  0.40660895  0.60335808  0.55831840     0.39000
H673        H  0.47036528  0.51274764  0.61444878     0.42100
H674        H  0.02465075  0.95016531  0.61762073     0.36900
H675        H  0.11561480  0.90021953  0.56561260     0.43000
H676        H  0.11188651  0.89174571  0.93300726     0.39400
H677        H  0.40144815  0.59316666  0.52191997     0.44400
H678        H  0.04438895  0.97534108  0.61689864     0.43100
H679        H  0.11146008  0.89507724  0.97166815     0.43200
H680        H  0.43865478  0.54853340  0.88511594     0.43600
C681        C  0.00902595  0.76843994  0.62843586     0.80200
N682        N  0.00743129  0.74138602  0.61068728    -0.78100
C683        C  0.00605699  0.71316260  0.62627853     0.82700
N684        N  0.00589110  0.71241540  0.65987222    -0.78000
C685        C  0.00738144  0.73926412  0.67794089     0.82800
N686        N  0.00891036  0.76723501  0.66196249    -0.79700
C687        C  0.00077318  0.76884914  0.87226231     0.80200
N688        N  0.00048133  0.74064916  0.88883919    -0.78100
C689        C  0.00101477  0.71209009  0.87202872     0.82700
N690        N  0.00143210  0.71229880  0.83833880    -0.78000
C691        C  0.00162119  0.74042969  0.82150357     0.82800
N692        N  0.00156169  0.76835211  0.83876719    -0.79700
C693        C  0.27823308  0.00209414  0.62692236     0.80200
N694        N  0.27727684  0.00465023  0.66043436    -0.78100
C695        C  0.24923920  0.00510185  0.67781078     0.82700
N696        N  0.22187126  0.00273625  0.66116780    -0.78000
C697        C  0.22228505  0.00044200  0.62764904     0.82800
N698        N  0.25044059  0.00031025  0.61055587    -0.79700
C699        C  0.27939032  0.99807557  0.87183983     0.80200
N700        N  0.27729559  0.00235820  0.83846295    -0.78100
C701        C  0.24892932  0.00280362  0.82149291     0.82700
N702        N  0.22251262  0.99888106  0.83841445    -0.78000
C703        C  0.22411016  0.99470528  0.87176012     0.82800
N704        N  0.25260089  0.99443264  0.88831510    -0.79700
C705        C  0.24873618  0.00711139  0.71456586    -0.05500
C706        C  0.21919124  0.00766824  0.73173447    -0.32900
C707        C  0.21842253  0.00713271  0.76630416     0.36400
C708        C  0.24764114  0.00608758  0.78478659    -0.05800
C709        C  0.27666969  0.00703185  0.76763289    -0.32800
C710        C  0.27737956  0.00769525  0.73302125     0.36300
H711        H  0.19649123  0.00795484  0.71840582     0.16600
O712        O  0.18877214  0.00774578  0.78156849    -0.60300
H713        H  0.30900149  0.48110245  0.78255695     0.16600
O714        O  0.31603053  0.48276047  0.71942592    -0.60400
H715        H  0.31347556  0.50743712  0.71878335     0.43600
H716        H  0.18911845  0.98399054  0.77844021     0.43600
C717        C  0.00278197  0.74041020  0.78473708    -0.05500
C718        C  0.00700527  0.70987269  0.76715054    -0.32900
C719        C  0.00863827  0.70888601  0.73254243     0.36400
C720        C  0.00617529  0.73884190  0.71464308    -0.05800
C721        C  0.49679833  0.76994241  0.73331250    -0.32800
C722        C  0.49739562  0.77041330  0.76786214     0.36300
H723        H  0.00931705  0.68639162  0.78019203     0.16600
O724        O  0.01362890  0.67814234  0.71670427    -0.60300
H725        H  0.48768451  0.79461958  0.72036259     0.16600
O726        O  0.48648839  0.80205860  0.78367077    -0.60400
H727        H  0.46114811  0.80882540  0.78749515     0.43600
H728        H  0.99014049  0.67737224  0.71532475     0.43600
C729        C  0.00214748  0.68053491  0.88999896    -0.05500
C730        C  0.50451797  0.65216548  0.87357690    -0.32900
C731        C  0.50335152  0.62300278  0.88976992     0.36400
C732        C  0.00496896  0.61946579  0.92262448    -0.05800
C733        C  0.01232905  0.64504286  0.93984828    -0.32800
C734        C  0.01066220  0.67548237  0.92400854     0.36300
H735        H  0.50229149  0.65324659  0.84685007     0.16600
O736        O  0.50056411  0.59644770  0.87141802    -0.60300
H737        H  0.01880958  0.64174361  0.96594577     0.16600
O738        O  0.01849801  0.69951088  0.94189969    -0.60400
H739        H  0.99733127  0.71230956  0.95524640     0.44200
H740        H  0.47518684  0.60325468  0.86785123     0.43600
C741        C  0.00171830  0.79951254  0.89002219    -0.05500
C742        C  0.01997176  0.81820260  0.87590302    -0.32900
C743        C  0.02124965  0.84765278  0.89157420     0.36400
C744        C  0.00333948  0.85954412  0.92174777    -0.05800
C745        C  0.48597099  0.84073029  0.93695411    -0.32800
C746        C  0.48708368  0.81026104  0.92126488     0.36300
H747        H  0.03367606  0.80976884  0.85262983     0.16600
O748        O  0.03919202  0.86512933  0.87653298    -0.60300
H749        H  0.47172945  0.84852741  0.95999135     0.16600
O750        O  0.46931106  0.79192367  0.93499923    -0.60400
H751        H  0.48419811  0.77865808  0.95349985     0.43600
H752        H  0.06407546  0.85161723  0.88195905     0.43600
C753        C  0.00412603  0.68357770  0.60725066    -0.05500
C754        C  0.48982534  0.66037017  0.62361092    -0.32900
C755        C  0.48839836  0.63181179  0.60640689     0.36400
C756        C  0.00222601  0.62483422  0.57366746    -0.05800
C757        C  0.01480525  0.64750190  0.55769705    -0.32800
C758        C  0.01541630  0.67693130  0.57402907     0.36300
H759        H  0.48196343  0.66381899  0.64938072     0.16600
O760        O  0.47759162  0.60903839  0.62290468    -0.60300
H761        H  0.02394722  0.64256812  0.53233522     0.16600
O762        O  0.02827084  0.69817941  0.55761045    -0.60400
H763        H  0.00839368  0.71418846  0.54444756     0.43600
H764        H  0.49929957  0.59019915  0.63082146     0.43600
C765        C  0.00903910  0.79963988  0.61137513    -0.05500
C766        C  0.99237983  0.80870944  0.58063668    -0.32900
C767        C  0.48812189  0.83880537  0.56292194     0.36400
C768        C  0.00691716  0.85981167  0.57802642    -0.05800
C769        C  0.02391761  0.85049343  0.60868681    -0.32800
C770        C  0.02479830  0.82087911  0.62548963     0.36300
H771        H  0.47864067  0.79206272  0.56768050     0.16600
O772        O  0.47553479  0.84427155  0.53116056    -0.60300
H773        H  0.03646287  0.86628154  0.61985219     0.16600
O774        O  0.04234729  0.81220763  0.65500863    -0.60400
H775        H  0.02585328  0.82702087  0.67186706     0.43600
H776        H  0.44983649  0.85590832  0.53347704     0.43600
C777        C  0.37188938  0.99511898  0.92218187    -0.05500
C778        C  0.35071889  0.97966232  0.93661780    -0.32900
C779        C  0.32027510  0.98089428  0.92094913     0.36400
C780        C  0.31074495  0.99723147  0.88984169    -0.05800
C781        C  0.33196565  0.01256972  0.87537608    -0.32800
C782        C  0.36074511  0.50993519  0.89582823     0.36300
H783        H  0.35752313  0.96681928  0.96040371     0.16600
O784        O  0.30082267  0.96490269  0.93580819    -0.60300
H785        H  0.32226433  0.52335904  0.85726565     0.16600
O786        O  0.37604496  0.53097507  0.88294912    -0.60400
H787        H  0.36250102  0.55448712  0.89215289     0.43600
H788        H  0.28530075  0.98239645  0.95155228     0.43600
C789        C  0.13780795  0.98789491  0.92567197    -0.05500
C790        C  0.14358157  0.97677003  0.89261379    -0.32900
C791        C  0.17154389  0.97869705  0.87470264     0.36400
C792        C  0.19482396  0.99126711  0.89009659    -0.05800
C793        C  0.19505589  0.49282108  0.92727487    -0.32800
C794        C  0.16600973  0.49382717  0.94542037     0.36300
H795        H  0.12580017  0.96737178  0.88024383     0.16600
O796        O  0.17639503  0.96728053  0.84249372    -0.60300
H797        H  0.21398765  0.50084478  0.93933584     0.16600
O798        O  0.16265118  0.50427819  0.97790463    -0.60400
H799        H  0.17414359  0.48259116  0.99083210     0.43600
H800        H  0.15629348  0.98401825  0.83010640     0.43600
C801        C  0.37092940  0.99807224  0.57656156    -0.05500
C802        C  0.35101022  0.47701490  0.56107339    -0.32900
C803        C  0.32118056  0.47708733  0.57721083     0.36400
C804        C  0.30965790  0.00086879  0.60888930    -0.05800
C805        C  0.33187324  0.01475597  0.62398624    -0.32800
C806        C  0.36222634  0.01340908  0.60820785     0.36300
H807        H  0.35527629  0.46883345  0.53539477     0.16600
O808        O  0.29883816  0.46607020  0.56014629    -0.60300
H809        H  0.32572797  0.02682983  0.64822047     0.16600
O810        O  0.38330161  0.02688090  0.62420381    -0.60400
H811        H  0.40142066  0.00671042  0.63528537     0.43600
H812        H  0.30707950  0.44075822  0.56473530     0.43600
C813        C  0.19214544  0.99848896  0.60997385    -0.05500
C814        C  0.18263693  0.51191257  0.58380766    -0.32900
C815        C  0.15243774  0.51374321  0.56711170     0.36400
C816        C  0.13335629  0.99662467  0.57616202    -0.05800
C817        C  0.14714684  0.97530102  0.60392169    -0.32800
C818        C  0.17597491  0.97642704  0.62096019     0.36300
H819        H  0.19619648  0.52796316  0.57544493     0.16600
O820        O  0.14117005  0.53589991  0.54067982    -0.60300
H821        H  0.13545572  0.95779159  0.61274623     0.16600
O822        O  0.18832308  0.95563069  0.64818212    -0.60400
H823        H  0.20511487  0.93312575  0.63933428     0.43600
H824        H  0.12670420  0.55889468  0.55041242     0.43600
O825        O  0.59781021  0.46320471  0.06389316    -0.75300
O826        O  0.59009233  0.01550003  0.03693827    -0.54200
C827        C  0.60883706  0.48709017  0.05604202     0.78400
O828        O  0.52885514  0.40271774  0.43239454    -0.59900
O829        O  0.97822055  0.40600272  0.46442978    -0.52900
C830        C  0.00135431  0.39219457  0.44185853     0.70500
O831        O  0.59416030  0.46713190  0.43537568    -0.74400
O832        O  0.59395580  0.00965721  0.46493585    -0.55000
C833        C  0.60524261  0.49093038  0.44335288     0.76500
O834        O  0.52991706  0.40183685  0.06766548    -0.59600
O835        O  0.98270812  0.40345968  0.03708221    -0.52700
C836        C  0.00507049  0.39087628  0.06037391     0.73000
Zr837      Zr  0.54934845  0.44689787  0.04936705     2.54700
O838        O  0.60111319  0.39299165  0.04785068    -0.80200
O839        O  0.54936727  0.45034970  0.10956967    -0.93600
Zr840      Zr  0.54675683  0.44947667  0.44949439     2.64700
O841        O  0.59920472  0.39615453  0.44961470    -0.98500
O842        O  0.54664479  0.45240602  0.38926826    -0.80600
O843        O  0.56821341  0.46382465  0.99943245    -0.83900
O844        O  0.53014190  0.42775225  0.00065497    -2.18700
O845        O  0.91441195  0.01482522  0.06426520    -0.67300
O846        O  0.91935786  0.46714672  0.03742398    -0.51900
C847        C  0.90350220  0.99068082  0.05693125     0.71400
O848        O  0.97758535  0.07852748  0.43172754    -0.60200
O849        O  0.52929806  0.07539814  0.46292766    -0.52200
C850        C  0.50662441  0.08844591  0.43991035     0.73200
O851        O  0.91827806  0.00702433  0.43167010    -0.71600
O852        O  0.91633755  0.46982069  0.46313631    -0.50300
C853        C  0.90753527  0.98322641  0.44066527     0.74600
O854        O  0.97800582  0.08166206  0.06288182    -0.67000
O855        O  0.52675841  0.07947353  0.03451302    -0.54200
C856        C  0.50283613  0.09378280  0.05627421     0.73000
Zr857      Zr  0.95976561  0.03472975  0.04684010     2.77500
O858        O  0.90687196  0.08763925  0.04527386    -0.97700
O859        O  0.95950374  0.03460537  0.10710552    -0.78500
Zr860      Zr  0.96136362  0.03046589  0.44866402     2.70100
O861        O  0.90610797  0.08070280  0.44699888    -0.79800
O862        O  0.96487216  0.02747036  0.38846653    -0.98900
Zr863      Zr  0.54138299  0.02833325  0.99974468     2.21500
Zr864      Zr  0.96530383  0.45602611  0.50048381     2.11100
O865        O  0.94133072  0.01427096  0.49844134    -2.47600
O866        O  0.97710661  0.05281411  0.49746518    -0.79600
O867        O  0.98555656  0.47299759  0.05099926    -0.71800
O868        O  0.52510726  0.00635749  0.45003304    -2.32700
O869        O  0.52143153  0.01231033  0.04980835    -2.28900
O870        O  0.98589943  0.47133296  0.45051162    -0.73500
H871        H  0.53816316  0.40267505  0.00062045     0.78500
H872        H  0.53433707  0.01342702  0.43066964     0.79500
H873        H  0.91623851  0.02183445  0.49804089     0.81800
H874        H  0.52945717  0.02105773  0.06895669     0.79400
H875        H  0.52509311  0.44947581  0.38243844     0.42400
H876        H  0.96653754  0.00371216  0.38289765     0.41400
H877        H  0.89564833  0.07880249  0.42543474     0.41100
H878        H  0.91127363  0.10193117  0.02767779     0.39000
H879        H  0.98424464  0.02790094  0.11344648     0.42100
H880        H  0.56240825  0.42607007  0.11692936     0.36900
H881        H  0.61530775  0.39631178  0.02951799     0.43000
H882        H  0.60957544  0.39529947  0.42739776     0.39400
H883        H  0.88883836  0.08028889  0.03584554     0.44400
H884        H  0.52489441  0.45557524  0.11606324     0.43100
H885        H  0.61532229  0.40107238  0.46493109     0.43200
H886        H  0.94134891  0.04302961  0.38084230     0.43600
C887        C  0.50818444  0.26865285  0.12889049     0.80200
N888        N  0.50709215  0.24127502  0.11130300    -0.78100
C889        C  0.50664162  0.21272482  0.12703024     0.82700
N890        N  0.50711044  0.21173499  0.16059765    -0.78000
C891        C  0.50824933  0.23879721  0.17854030     0.82800
N892        N  0.50871275  0.26716098  0.16243323    -0.79700
C893        C  0.50620036  0.26775090  0.37287948     0.80200
N894        N  0.50573250  0.23960403  0.38945427    -0.78100
C895        C  0.50621661  0.21106094  0.37267463     0.82700
N896        N  0.50697638  0.21117064  0.33902887    -0.78000
C897        C  0.50750744  0.23909563  0.32215889     0.82800
N898        N  0.50718928  0.26717777  0.33935577    -0.79700
C899        C  0.78384553  0.49167932  0.12772901     0.80200
N900        N  0.78292343  0.49274834  0.16128789    -0.78100
C901        C  0.75489755  0.49229259  0.17804855     0.82700
N902        N  0.72765050  0.49035961  0.16088443    -0.78000
C903        C  0.72816907  0.48954833  0.12731499     0.82800
N904        N  0.75618057  0.49043435  0.11085526    -0.79700
C905        C  0.78235002  0.49046307  0.37170578     0.80200
N906        N  0.78192370  0.49094647  0.33811546    -0.78100
C907        C  0.75404661  0.49019472  0.32120064     0.82700
N908        N  0.72628314  0.48940891  0.33826862    -0.78000
C909        C  0.72624968  0.48912796  0.37187235     0.82800
N910        N  0.75439166  0.48969746  0.38844645    -0.79700
C911        C  0.75450510  0.49263026  0.21464394    -0.05500
C912        C  0.73238679  0.47993611  0.23144204    -0.32900
C913        C  0.73209527  0.47871852  0.26595594     0.36400
C914        C  0.75386733  0.49080297  0.28455836    -0.05800
C915        C  0.77591135  0.50365646  0.26775293    -0.32800
C916        C  0.77624696  0.50482665  0.23319381     0.36300
H917        H  0.71566261  0.47014363  0.21779980     0.16600
O918        O  0.71081859  0.46501264  0.28105886    -0.60300
H919        H  0.79889540  0.00029262  0.28338863     0.16600
O920        O  0.80319606  0.00783022  0.22020989    -0.60400
H921        H  0.79054771  0.03350174  0.21954922     0.43600
H922        H  0.72548225  0.43992266  0.28403635     0.43600
C923        C  0.50834101  0.23889327  0.28540962    -0.05500
C924        C  0.50400147  0.21162776  0.26792438    -0.32900
C925        C  0.50418791  0.21087451  0.23330490     0.36400
C926        C  0.50869441  0.23785137  0.21526809    -0.05800
C927        C  0.01832035  0.26022173  0.23242530    -0.32800
C928        C  0.01749403  0.26141571  0.26704175     0.36300
H929        H  0.50024418  0.19071167  0.28105143     0.16600
O930        O  0.50025599  0.18339664  0.21759759    -0.60300
H931        H  0.02981590  0.27582078  0.21934559     0.16600
O932        O  0.03190524  0.28166287  0.28310750    -0.60400
H933        H  0.01421726  0.30584622  0.28155880     0.43600
H934        H  0.47473828  0.19063542  0.21465224     0.43600
C935        C  0.50640962  0.17974884  0.39050058    -0.05500
C936        C  0.99791753  0.15452713  0.37218618    -0.32900
C937        C  0.99813502  0.12466742  0.38823241     0.36400
C938        C  0.50712311  0.11924905  0.42259784    -0.05800
C939        C  0.50843892  0.14719568  0.44109000    -0.32800
C940        C  0.50772891  0.17739453  0.42545364     0.36300
H941        H  0.99817381  0.15464849  0.34537518     0.16600
O942        O  0.99946480  0.09654769  0.36968089    -0.60300
H943        H  0.50938983  0.14586409  0.46789061     0.16600
O944        O  0.50888871  0.20406651  0.44471704    -0.60400
H945        H  0.48454245  0.21696133  0.45227290     0.44200
H946        H  0.97481957  0.10096113  0.36446084     0.43600
C947        C  0.50629337  0.29873117  0.39074258    -0.05500
C948        C  0.52299919  0.31877330  0.37635944    -0.32900
C949        C  0.52323245  0.34858708  0.39215503     0.36400
C950        C  0.50593489  0.35937280  0.42277632    -0.05800
C951        C  0.98254376  0.34217405  0.43712507    -0.32800
C952        C  0.98212869  0.31250896  0.42099565     0.36300
H953        H  0.53621221  0.31119997  0.35275410     0.16600
O954        O  0.53934395  0.36760866  0.37672379    -0.60300
H955        H  0.96931841  0.34955773  0.46071364     0.16600
O956        O  0.96406830  0.29458639  0.43499956    -0.60400
H957        H  0.97830485  0.28221907  0.45422149     0.43600
H958        H  0.56438447  0.35588691  0.38253491     0.43600
C959        C  0.50510992  0.18303953  0.10810756    -0.05500
C960        C  0.98944159  0.16081546  0.12225797    -0.32900
C961        C  0.98827405  0.13191948  0.10549085     0.36400
C962        C  0.50317846  0.12456287  0.07421004    -0.05800
C963        C  0.51877672  0.14546367  0.05957628    -0.32800
C964        C  0.51956066  0.17467340  0.07611951     0.36300
H965        H  0.97844452  0.16646197  0.14694207     0.16600
O966        O  0.97396354  0.11148389  0.12124034    -0.60300
H967        H  0.53030788  0.13927337  0.03512854     0.16600
O968        O  0.53592347  0.19384900  0.06139815    -0.60400
H969        H  0.51861589  0.20944679  0.04564208     0.43600
H970        H  0.99390004  0.09265632  0.13189205     0.43600
C971        C  0.50791537  0.30007997  0.11159139    -0.05500
C972        C  0.49783863  0.30523094  0.07816977    -0.32900
C973        C  0.99830929  0.33362863  0.06062234     0.36400
C974        C  0.50607561  0.35983251  0.07742849    -0.05800
C975        C  0.51666924  0.35456501  0.11062718    -0.32800
C976        C  0.51734785  0.32523149  0.12781987     0.36300
H977        H  0.99456731  0.28399900  0.06345757     0.16600
O978        O  0.99176783  0.33619800  0.02729765    -0.60300
H979        H  0.52422221  0.37343428  0.12344472     0.16600
O980        O  0.52837509  0.32099722  0.16011527    -0.60400
H981        H  0.50757464  0.33522979  0.17331369     0.43600
H982        H  0.96599779  0.34524180  0.02532832     0.43600
C983        C  0.87200541  0.49298908  0.42276002    -0.05500
C984        C  0.85239154  0.47551690  0.43667277    -0.32900
C985        C  0.82288627  0.47489931  0.42063421     0.36400
C986        C  0.81283138  0.49133111  0.38972998    -0.05800
C987        C  0.83236240  0.50873131  0.37571253    -0.32800
C988        C  0.86954203  0.99291868  0.39003000     0.36300
H989        H  0.85977186  0.46234261  0.46024973     0.16600
O990        O  0.80502165  0.45683115  0.43473909    -0.60300
H991        H  0.83467660  0.00113272  0.34916283     0.16600
O992        O  0.89043707  0.00574015  0.37293216    -0.60400
H993        H  0.87877485  0.03144367  0.37489633     0.43600
H994        H  0.78945178  0.47292416  0.45143949     0.43600
C995        C  0.63680143  0.49010908  0.42603488    -0.05500
C996        C  0.64339509  0.47636117  0.39383645    -0.32900
C997        C  0.67215594  0.47603144  0.37589798     0.36400
C998        C  0.69562239  0.48891386  0.39033707    -0.05800
C999        C  0.69301489  0.99390275  0.42323256    -0.32800
C1000       C  0.66330102  0.99616638  0.44090553     0.36300
H1001       H  0.62575868  0.46633820  0.38210915     0.16600
O1002       O  0.67748381  0.46212076  0.34459603    -0.60300
H1003       H  0.71035164  0.00484571  0.43405533     0.16600
O1004       O  0.65715032  0.01201289  0.47138326    -0.60400
H1005       H  0.66767249  0.99285920  0.48750780     0.43600
H1006       H  0.66051623  0.48023115  0.33039834     0.43600
C1007       C  0.87574401  0.48979603  0.07803444    -0.05500
C1008       C  0.85010842  0.97694312  0.06026109    -0.32900
C1009       C  0.82038373  0.97728769  0.07686677     0.36400
C1010       C  0.81511443  0.49113152  0.11005188    -0.05800
C1011       C  0.83884734  0.50190204  0.12677856    -0.32800
C1012       C  0.86891664  0.50131019  0.11107873     0.36300
H1013       H  0.85514725  0.96662227  0.03528066     0.16600
O1014       O  0.79896392  0.96409174  0.06110253    -0.60300
H1015       H  0.83407284  0.51105056  0.15214570     0.16600
O1016       O  0.89144069  0.51193991  0.12835715    -0.60400
H1017       H  0.90989499  0.49021204  0.13671699     0.43600
H1018       H  0.80724628  0.93941572  0.06819461     0.43600
C1019       C  0.69848463  0.48793400  0.10875760    -0.05500
C1020       C  0.68393474  0.01026407  0.08251689    -0.32900
C1021       C  0.65408270  0.01171512  0.06562821     0.36400
C1022       C  0.64030750  0.48713498  0.07337119    -0.05800
C1023       C  0.65299321  0.46577163  0.10130409    -0.32800
C1024       C  0.68162457  0.46626233  0.11904403     0.36300
H1025       H  0.69877785  0.02448074  0.07273398     0.16600
O1026       O  0.64439856  0.03169494  0.03764309    -0.60300
H1027       H  0.64041876  0.44892056  0.10986140     0.16600
O1028       O  0.69305678  0.44526060  0.14626887    -0.60400
H1029       H  0.71184678  0.42369613  0.13793036     0.43600
H1030       H  0.63075465  0.05570646  0.04564376     0.43600
O1031       O  0.59105137  0.47368359  0.56508798    -0.75300
O1032       O  0.59212699  0.01147020  0.53695187    -0.54200
C1033       C  0.60059707  0.49875456  0.55769331     0.78400
O1034       O  0.52472351  0.40305184  0.93306718    -0.59900
O1035       O  0.98212629  0.40380570  0.96410957    -0.52900
C1036       C  0.00468758  0.39081238  0.94091832     0.70500
O1037       O  0.59551813  0.46258995  0.93464637    -0.74400
O1038       O  0.59302360  0.01151643  0.96549387    -0.55000
C1039       C  0.60763345  0.48565722  0.94271712     0.76500
O1040       O  0.53040896  0.40441968  0.56598397    -0.59600
O1041       O  0.97783187  0.40653216  0.53644617    -0.52700
C1042       C  0.00077850  0.39310223  0.55911183     0.73000
Zr1043     Zr  0.54748945  0.45105501  0.54776369     2.54700
O1044       O  0.60159718  0.39978190  0.54251031    -0.80200
O1045       O  0.54992813  0.44749288  0.60793398    -0.93600
Zr1046     Zr  0.54734106  0.44636502  0.95079320     2.64700
O1047       O  0.59735204  0.39094340  0.95229240    -0.98500
O1048       O  0.54755163  0.44788648  0.89054415    -0.80600
O1049       O  0.56575306  0.46897176  0.49815361    -0.83900
O1050       O  0.53010899  0.43007293  0.49913404    -2.18700
O1051       O  0.91582611  0.01273522  0.56680363    -0.67300
O1052       O  0.91476958  0.47128521  0.53631308    -0.51900
C1053       C  0.90564302  0.98806576  0.55949215     0.71400
O1054       O  0.97851743  0.07979243  0.93101271    -0.60200
O1055       O  0.52978908  0.07687538  0.96242872    -0.52200
C1056       C  0.50739576  0.08990349  0.93918702     0.73200
O1057       O  0.91506704  0.01407633  0.93154518    -0.71600
O1058       O  0.91917498  0.46502707  0.96490750    -0.50300
C1059       C  0.90384589  0.99047042  0.93967307     0.74600
O1060       O  0.97668476  0.08197190  0.56359115    -0.67000
O1061       O  0.53058824  0.07751190  0.53323004    -0.54200
C1062       C  0.50651296  0.09305607  0.55446877     0.73000
Zr1063     Zr  0.95881724  0.03487269  0.54716362     2.77500
O1064       O  0.90507023  0.08545080  0.53773065    -0.97700
O1065       O  0.95281875  0.04265329  0.60692054    -0.78500
Zr1066     Zr  0.96078397  0.03329102  0.94839722     2.70100
O1067       O  0.90816227  0.08641391  0.95100126    -0.79800
O1068       O  0.96148662  0.03346524  0.88809984    -0.98900
Zr1069     Zr  0.54288371  0.02601647  0.49958817     2.21500
Zr1070     Zr  0.96879338  0.45308760  0.00110153     2.11100
O1071       O  0.94094860  0.01611658  0.99770780    -2.47600
O1072       O  0.97780810  0.05367890  0.99748858    -0.79600
O1073       O  0.98230313  0.47561328  0.55040753    -0.71800
O1074       O  0.52424825  0.00883610  0.94991314    -2.32700
O1075       O  0.52290767  0.01080021  0.54995473    -2.28900
O1076       O  0.98805236  0.46922171  0.95098628    -0.73500
H1077       H  0.53938278  0.40493596  0.49927907     0.78500
H1078       H  0.53356207  0.01604560  0.93068383     0.79500
H1079       H  0.91581421  0.02435941  0.99759844     0.81800
H1080       H  0.53122625  0.01958574  0.56886518     0.79400
H1081       H  0.53540594  0.47283467  0.88489883     0.42400
H1082       H  0.96352532  0.00981611  0.88160207     0.41400
H1083       H  0.88952025  0.07880097  0.95824457     0.41100
H1084       H  0.89970180  0.09755884  0.55939726     0.39000
H1085       H  0.97704145  0.03246257  0.61537583     0.42100
H1086       H  0.54210673  0.47197636  0.61551389     0.36900
H1087       H  0.61694487  0.40248991  0.56009037     0.43000
H1088       H  0.60159806  0.38362277  0.92880904     0.39400
H1089       H  0.91207151  0.10089156  0.52342153     0.44400
H1090       H  0.57511658  0.43701865  0.61330078     0.43100
H1091       H  0.61734076  0.39698271  0.95848616     0.43200
H1092       H  0.93747234  0.04895369  0.88171210     0.43600
C1093       C  0.51599788  0.26733743  0.62645145     0.80200
N1094       N  0.51584363  0.23945077  0.60895457    -0.78100
C1095       C  0.51554148  0.21084102  0.62477516     0.82700
N1096       N  0.51528981  0.21038782  0.65842298    -0.78000
C1097       C  0.51561630  0.23790233  0.67627600     0.82800
N1098       N  0.51580020  0.26625409  0.66000661    -0.79700
C1099       C  0.50143107  0.27061881  0.87097834     0.80200
N1100       N  0.50286256  0.24161509  0.88728003    -0.78100
C1101       C  0.50635844  0.21213276  0.87040104     0.82700
N1102       N  0.50832562  0.21204682  0.83677409    -0.78000
C1103       C  0.50697096  0.24082843  0.82005649     0.82800
N1104       N  0.50363319  0.26984071  0.83745029    -0.79700
C1105       C  0.77754502  0.50042862  0.62760607     0.80200
N1106       N  0.77813339  0.49955116  0.66119605    -0.78100
C1107       C  0.75035358  0.49938480  0.67860283     0.82700
N1108       N  0.72176658  0.49984916  0.66213728    -0.78000
C1109       C  0.72054504  0.50123291  0.62859254     0.82800
N1110       N  0.74846213  0.50160803  0.61136225    -0.79700
C1111       C  0.78448609  0.48682751  0.87180083     0.80200
N1112       N  0.78326003  0.48940886  0.83822865    -0.78100
C1113       C  0.75467809  0.49041673  0.82133529     0.82700
N1114       N  0.72703131  0.48938924  0.83828246    -0.78000
C1115       C  0.72759705  0.48703651  0.87173380     0.82800
N1116       N  0.75647463  0.48577303  0.88838999    -0.79700
C1117       C  0.75154477  0.49758343  0.71511054    -0.05500
C1118       C  0.73213915  0.48158460  0.73169663    -0.32900
C1119       C  0.73326417  0.47870065  0.76613472     0.36400
C1120       C  0.75356573  0.49254757  0.78481347    -0.05800
C1121       C  0.77294059  0.50862518  0.76823812    -0.32800
C1122       C  0.77199327  0.51129577  0.73371608     0.36300
H1123       H  0.71658176  0.47050521  0.71788312     0.16600
O1124       O  0.71499113  0.46155455  0.78111543    -0.60300
H1125       H  0.80605789  0.98697394  0.78227739     0.16600
O1126       O  0.81474473  0.98544964  0.71924048    -0.60400
H1127       H  0.81549891  0.00893111  0.71818672     0.43600
H1128       H  0.73145495  0.43682331  0.78217415     0.43600
C1129       C  0.50950580  0.24038559  0.78325768    -0.05500
C1130       C  0.51694668  0.20895992  0.76595500    -0.32900
C1131       C  0.51929877  0.20754376  0.73136238     0.36400
C1132       C  0.51420858  0.23796690  0.71307755    -0.05800
C1133       C  0.99296067  0.27218701  0.73134875    -0.32800
C1134       C  0.99306156  0.27293161  0.76589428     0.36300
H1135       H  0.52116637  0.18510228  0.77922378     0.16600
O1136       O  0.52758814  0.17597587  0.71591004    -0.60300
H1137       H  0.98572769  0.29661632  0.71818637     0.16600
O1138       O  0.98365168  0.30454514  0.78153565    -0.60400
H1139       H  0.95804485  0.31291152  0.78468305     0.43600
H1140       H  0.50515078  0.17305259  0.71359310     0.43600
C1141       C  0.50790750  0.18031591  0.88828141    -0.05500
C1142       C  0.99526730  0.15646938  0.87156126    -0.32900
C1143       C  0.99490156  0.12687810  0.88754242     0.36400
C1144       C  0.50877431  0.12006127  0.92116674    -0.05800
C1145       C  0.51304124  0.14699182  0.93900113    -0.32800
C1146       C  0.51218188  0.17707685  0.92302961     0.36300
H1147       H  0.99058735  0.15882592  0.84512500     0.16600
O1148       O  0.98971532  0.10153380  0.86921036    -0.60300
H1149       H  0.51609945  0.14515677  0.96567076     0.16600
O1150       O  0.51605194  0.20283198  0.94174672    -0.60400
H1151       H  0.49326802  0.21472799  0.95299112     0.44200
H1152       H  0.96403419  0.10929678  0.86731528     0.43600
C1153       C  0.49925088  0.30242297  0.88924244    -0.05500
C1154       C  0.50908311  0.32702797  0.87302221    -0.32900
C1155       C  0.50918891  0.35647747  0.88960104     0.36400
C1156       C  0.49906629  0.36215045  0.92308289    -0.05800
C1157       C  0.99471103  0.33595883  0.93945765    -0.32800
C1158       C  0.99482956  0.30614539  0.92348432     0.36300
H1159       H  0.51731839  0.32330242  0.84736711     0.16600
O1160       O  0.51796990  0.38026706  0.87242378    -0.60300
H1161       H  0.98835551  0.33939197  0.96547259     0.16600
O1162       O  0.98618413  0.28274871  0.94138249    -0.60400
H1163       H  0.00656901  0.27070704  0.95587809     0.43600
H1164       H  0.54376643  0.36975400  0.87058158     0.43600
C1165       C  0.51333195  0.18114175  0.60590488    -0.05500
C1166       C  0.98956600  0.16041233  0.62305065    -0.32900
C1167       C  0.98896447  0.13110776  0.60668474     0.36400
C1168       C  0.50807170  0.12377004  0.57196457    -0.05800
C1169       C  0.52296993  0.14488072  0.55641826    -0.32800
C1170       C  0.52515090  0.17368387  0.57289175     0.36300
H1171       H  0.98026031  0.16508230  0.64836620     0.16600
O1172       O  0.97765624  0.10890885  0.62353136    -0.60300
H1173       H  0.53267470  0.13925841  0.53127762     0.16600
O1174       O  0.53990307  0.19356399  0.55683510    -0.60400
H1175       H  0.52094251  0.21003513  0.54304771     0.43600
H1176       H  0.99885866  0.09161315  0.63402440     0.43600
C1177       C  0.51471782  0.29920390  0.60909953    -0.05500
C1178       C  0.51027019  0.30153896  0.57453240    -0.32900
C1179       C  0.98980148  0.33764948  0.56038178     0.36400
C1180       C  0.51006837  0.35985196  0.57492598    -0.05800
C1181       C  0.51522792  0.35751834  0.60921435    -0.32800
C1182       C  0.51716237  0.32777768  0.62642035     0.36300
H1183       H  0.98295523  0.28943938  0.56422941     0.16600
O1184       O  0.97920329  0.34209002  0.52795757    -0.60300
H1185       H  0.51728967  0.37909102  0.62283940     0.16600
O1186       O  0.52204299  0.32690739  0.66004125    -0.60400
H1187       H  0.49851686  0.33980948  0.66954526     0.43600
H1188       H  0.95337007  0.35100057  0.52877984     0.43600
C1189       C  0.87546302  0.48654199  0.92354878    -0.05500
C1190       C  0.85357521  0.47221329  0.93854202    -0.32900
C1191       C  0.82395326  0.47198937  0.92214324     0.36400
C1192       C  0.81589862  0.48590428  0.88992423    -0.05800
C1193       C  0.83838991  0.49925255  0.87463894    -0.32800
C1194       C  0.85990923  0.00934299  0.89309474     0.36300
H1195       H  0.85913379  0.46150605  0.96329718     0.16600
O1196       O  0.80384616  0.45697539  0.93743166    -0.60300
H1197       H  0.82176434  0.02247349  0.85457617     0.16600
O1198       O  0.87619211  0.02898260  0.87910800    -0.60400
H1199       H  0.86300751  0.05308275  0.88715205     0.43600
H1200       H  0.78866285  0.47493178  0.95299533     0.43600
C1201       C  0.63891172  0.48485721  0.92519228    -0.05500
C1202       C  0.64172724  0.47850448  0.89108674    -0.32900
C1203       C  0.67006467  0.47952560  0.87328149     0.36400
C1204       C  0.69695621  0.48601757  0.88979858    -0.05800
C1205       C  0.69318549  0.99308850  0.92466234    -0.32800
C1206       C  0.66415200  0.99415698  0.94257944     0.36300
H1207       H  0.62136473  0.47359594  0.87795679     0.16600
O1208       O  0.67125146  0.47358368  0.83982574    -0.60300
H1209       H  0.71221839  0.00078415  0.93697086     0.16600
O1210       O  0.66107238  0.00407001  0.97514767    -0.60400
H1211       H  0.67146563  0.98202992  0.98777855     0.43600
H1212       H  0.65638013  0.49628980  0.82991813     0.43600
C1213       C  0.87009941  0.49584585  0.57636118    -0.05500
C1214       C  0.85389135  0.97195406  0.56254297    -0.32900
C1215       C  0.82423539  0.97163156  0.57863858     0.36400
C1216       C  0.80890090  0.49912142  0.60930436    -0.05800
C1217       C  0.83269958  0.51051039  0.62506690    -0.32800
C1218       C  0.86305292  0.50883405  0.60900497     0.36300
H1219       H  0.85966501  0.96125592  0.53773949     0.16600
O1220       O  0.80394155  0.95718249  0.56274085    -0.60300
H1221       H  0.82781707  0.52082301  0.65005316     0.16600
O1222       O  0.88584114  0.51957808  0.62569772    -0.60400
H1223       H  0.90344415  0.49808651  0.63542335     0.43600
H1224       H  0.81313298  0.93250006  0.56993418     0.43600
C1225       C  0.68936575  0.50142472  0.61109930    -0.05500
C1226       C  0.68354157  0.00917597  0.58517184    -0.32900
C1227       C  0.65332145  0.01103277  0.56873495     0.36400
C1228       C  0.63034288  0.50119210  0.57648496    -0.05800
C1229       C  0.64351988  0.47954058  0.60411540    -0.32800
C1230       C  0.67253138  0.47969126  0.62141611     0.36300
H1231       H  0.69568718  0.02694423  0.57821600     0.16600
O1232       O  0.64009563  0.03552282  0.54438392    -0.60300
H1233       H  0.63152308  0.46207439  0.61235266     0.16600
O1234       O  0.68471070  0.45781505  0.64795260    -0.60400
H1235       H  0.70229485  0.43601893  0.63860783     0.43600
H1236       H  0.62420929  0.05679706  0.55599075     0.43600
O1237       O  0.59273534  0.96812857  0.06656279    -0.75300
O1238       O  0.59408822  0.51112903  0.03468395    -0.54200
C1239       C  0.60391949  0.99204376  0.05901861     0.78400
O1240       O  0.52350673  0.90451260  0.43236184    -0.59900
O1241       O  0.98394784  0.90202160  0.46544692    -0.52900
C1242       C  0.00653100  0.88938022  0.44224752     0.70500
O1243       O  0.59717187  0.96003592  0.43860806    -0.74400
O1244       O  0.59041149  0.51544278  0.46443903    -0.55000
C1245       C  0.60854658  0.98405127  0.44497185     0.76500
O1246       O  0.52580829  0.90436853  0.06629489    -0.59600
O1247       O  0.98132998  0.90435075  0.03438979    -0.52700
C1248       C  0.00460885  0.89116548  0.05683889     0.73000
Zr1249     Zr  0.54491019  0.95074249  0.05087230     2.54700
O1250       O  0.59778964  0.89821033  0.05597895    -0.80200
O1251       O  0.53769109  0.95729034  0.11072395    -0.93600
Zr1252     Zr  0.54814765  0.94479809  0.45341013     2.64700
O1253       O  0.59487322  0.88789383  0.46149071    -0.98500
O1254       O  0.55821957  0.94024964  0.39390584    -0.80600
O1255       O  0.56615603  0.96634741  0.00157261    -0.83900
O1256       O  0.52784669  0.93019028  0.00172443    -2.18700
O1257       O  0.91766262  0.51383012  0.06809498    -0.67300
O1258       O  0.91724467  0.96715494  0.03465745    -0.51900
C1259       C  0.90640345  0.49012982  0.06021288     0.71400
O1260       O  0.98110675  0.57917128  0.43210993    -0.60200
O1261       O  0.52344224  0.57973611  0.46073280    -0.52200
C1262       C  0.49912244  0.59348290  0.43932897     0.73200
O1263       O  0.91510741  0.51604205  0.43246824    -0.71600
O1264       O  0.92055028  0.96191702  0.46459755    -0.50300
C1265       C  0.90320607  0.49290968  0.44051165     0.74600
O1266       O  0.97923322  0.58189516  0.06382639    -0.67000
O1267       O  0.53199347  0.57604766  0.03416988    -0.54200
C1268       C  0.50874579  0.59050770  0.05636337     0.73000
Zr1269     Zr  0.96111550  0.53478284  0.04829616     2.77500
O1270       O  0.90659030  0.58506895  0.04094306    -0.97700
O1271       O  0.95787348  0.54211144  0.10817789    -0.78500
Zr1272     Zr  0.96243736  0.53303780  0.44900218     2.70100
O1273       O  0.90974752  0.58592176  0.44512763    -0.79800
O1274       O  0.96829660  0.52644835  0.38912699    -0.98900
Zr1275     Zr  0.54347751  0.52571274  0.99948609     2.21500
Zr1276     Zr  0.96914728  0.95249178  0.50092935     2.11100
O1277       O  0.94063560  0.51799945  0.49831463    -2.47600
O1278       O  0.97885748  0.55422618  0.49801407    -0.79600
O1279       O  0.98501449  0.97300382  0.04821525    -0.71800
O1280       O  0.52094249  0.51114972  0.44799267    -2.32700
O1281       O  0.52596863  0.50853896  0.05019647    -2.28900
O1282       O  0.98771579  0.96888599  0.45043723    -0.73500
H1283       H  0.53610953  0.90510532  0.00206530     0.78500
H1284       H  0.52915558  0.51943587  0.42871610     0.79500
H1285       H  0.91546255  0.52692815  0.49773027     0.81800
H1286       H  0.53506462  0.51672608  0.06901865     0.79400
H1287       H  0.54063396  0.96209678  0.38488731     0.42400
H1288       H  0.96930590  0.50268411  0.38470054     0.41400
H1289       H  0.91060772  0.59506719  0.42268592     0.41100
H1290       H  0.90815853  0.60289404  0.05638772     0.39000
H1291       H  0.97429844  0.51945643  0.11684212     0.42100
H1292       H  0.55326424  0.96892042  0.11780866     0.36900
H1293       H  0.59352012  0.88065518  0.04208722     0.43000
H1294       H  0.60820828  0.88314719  0.44049272     0.39400
H1295       H  0.90851174  0.59399717  0.01865654     0.44400
H1296       H  0.54888809  0.93329515  0.11945636     0.43100
H1297       H  0.61051478  0.89202358  0.47791869     0.43200
H1298       H  0.94533029  0.54213659  0.38038095     0.43600
C1299       C  0.50729949  0.76939298  0.12630614     0.80200
N1300       N  0.50968217  0.74048033  0.10902963    -0.78100
C1301       C  0.51116527  0.71137267  0.12522360     0.82700
N1302       N  0.51004481  0.71155763  0.15883406    -0.78000
C1303       C  0.50745341  0.74018628  0.17642741     0.82800
N1304       N  0.50603213  0.76897461  0.15987538    -0.79700
C1305       C  0.50030864  0.77173663  0.37124699     0.80200
N1306       N  0.50015162  0.74339240  0.38767662    -0.78100
C1307       C  0.50079232  0.71484840  0.37087189     0.82700
N1308       N  0.50144075  0.71496270  0.33722439    -0.78000
C1309       C  0.50176336  0.74302452  0.32036715     0.82800
N1310       N  0.50131035  0.77115900  0.33765931    -0.79700
C1311       C  0.78232435  0.99085315  0.12813712     0.80200
N1312       N  0.78335737  0.98944805  0.16176607    -0.78100
C1313       C  0.75583198  0.98872335  0.17935196     0.82700
N1314       N  0.72713378  0.98939220  0.16298849    -0.78000
C1315       C  0.72554306  0.99103034  0.12951667     0.82800
N1316       N  0.75319471  0.99185156  0.11214881    -0.79700
C1317       C  0.78786924  0.97678092  0.37263979     0.80200
N1318       N  0.78687487  0.97795828  0.33909215    -0.78100
C1319       C  0.75840285  0.97864232  0.32232912     0.82700
N1320       N  0.73048738  0.97844608  0.33953986    -0.78000
C1321       C  0.73095724  0.97743655  0.37313770     0.82800
N1322       N  0.75969496  0.97676256  0.38958978    -0.79700
C1323       C  0.75703975  0.98621686  0.21593452    -0.05500
C1324       C  0.73399835  0.97429000  0.23229357    -0.32900
C1325       C  0.73427231  0.97136936  0.26671917     0.36400
C1326       C  0.75765809  0.98081185  0.28573547    -0.05800
C1327       C  0.78078208  0.99266442  0.26939612    -0.32800
C1328       C  0.78054800  0.99553311  0.23491326     0.36300
H1329       H  0.71586225  0.96664968  0.21835579     0.16600
O1330       O  0.71176688  0.95884566  0.28130992    -0.60300
H1331       H  0.79273099  0.51330695  0.28142249     0.16600
O1332       O  0.79778463  0.51819861  0.21797750    -0.60400
H1333       H  0.78317876  0.54321470  0.21445139     0.43600
H1334       H  0.72488822  0.93327697  0.28270256     0.43600
C1335       C  0.50267222  0.74280315  0.28351121    -0.05500
C1336       C  0.50634416  0.71224069  0.26620911    -0.32900
C1337       C  0.50752571  0.71094491  0.23158283     0.36400
C1338       C  0.50565949  0.74047047  0.21324466    -0.05800
C1339       C  0.01678091  0.76427483  0.23137123    -0.32800
C1340       C  0.01602396  0.76525317  0.26599557     0.36300
H1341       H  0.50833803  0.68898974  0.27948973     0.16600
O1342       O  0.51097150  0.68040854  0.21616194    -0.60300
H1343       H  0.02293583  0.78386063  0.21834130     0.16600
O1344       O  0.02380296  0.79049917  0.28183178    -0.60400
H1345       H  0.00174249  0.81151775  0.28186772     0.43600
H1346       H  0.48690147  0.68118026  0.21443281     0.43600
C1347       C  0.50024598  0.68401070  0.38884918    -0.05500
C1348       C  0.99489121  0.65694971  0.37254129    -0.32900
C1349       C  0.99458608  0.62740315  0.38874973     0.36400
C1350       C  0.49888423  0.62462647  0.42170137    -0.05800
C1351       C  0.51046193  0.64785859  0.43816233    -0.32800
C1352       C  0.51097242  0.67742670  0.42218911     0.36300
H1353       H  0.98679129  0.66101310  0.34686962     0.16600
O1354       O  0.98522422  0.60407168  0.37133028    -0.60300
H1355       H  0.51905373  0.64319587  0.46368024     0.16600
O1356       O  0.52345868  0.69879643  0.43902536    -0.60400
H1357       H  0.50502179  0.71151247  0.45530654     0.44200
H1358       H  0.95935121  0.61398559  0.37149002     0.43600
C1359       C  0.49928335  0.80319177  0.38941100    -0.05500
C1360       C  0.50755585  0.82848944  0.37251614    -0.32900
C1361       C  0.50716576  0.85832278  0.38876901     0.36400
C1362       C  0.49808986  0.86359376  0.42252142    -0.05800
C1363       C  0.99749034  0.83390073  0.44083708    -0.32800
C1364       C  0.99737231  0.80435284  0.42443579     0.36300
H1365       H  0.51467802  0.82513819  0.34656378     0.16600
O1366       O  0.51448256  0.88276188  0.37111255    -0.60300
H1367       H  0.99157777  0.83688006  0.46705939     0.16600
O1368       O  0.98919660  0.78051355  0.44211777    -0.60400
H1369       H  0.01049092  0.76723444  0.45504536     0.43600
H1370       H  0.54030233  0.87375031  0.36992982     0.43600
C1371       C  0.51190317  0.68018585  0.10693875    -0.05500
C1372       C  0.99438266  0.65937505  0.12322579    -0.32900
C1373       C  0.99258604  0.63058685  0.10681869     0.36400
C1374       C  0.51017745  0.62103166  0.07388090    -0.05800
C1375       C  0.52150046  0.64433468  0.05726027    -0.32800
C1376       C  0.52201465  0.67398566  0.07337165     0.36300
H1377       H  0.98540923  0.66418367  0.14863260     0.16600
O1378       O  0.98013224  0.60924677  0.12363339    -0.60300
H1379       H  0.52936018  0.63991913  0.03151964     0.16600
O1380       O  0.53318726  0.69613744  0.05627921    -0.60400
H1381       H  0.51271509  0.71121337  0.04321165     0.43600
H1382       H  0.00113810  0.58996757  0.13219577     0.43600
C1383       C  0.50566215  0.80126768  0.10885563    -0.05500
C1384       C  0.49547946  0.80634215  0.07543605    -0.32900
C1385       C  0.99030249  0.83757045  0.06086941     0.36400
C1386       C  0.50264260  0.86159255  0.07489183    -0.05800
C1387       C  0.51299437  0.85645513  0.10812023    -0.32800
C1388       C  0.51407986  0.82699362  0.12522722     0.36300
H1389       H  0.98089157  0.79089212  0.06688796     0.16600
O1390       O  0.97476749  0.84398769  0.03028984    -0.60300
H1391       H  0.52001989  0.87558896  0.12110020     0.16600
O1392       O  0.52456931  0.82320653  0.15767919    -0.60400
H1393       H  0.50341760  0.83723386  0.17053852     0.43600
H1394       H  0.94950106  0.85662300  0.03475277     0.43600
C1395       C  0.87770609  0.98049897  0.42265395    -0.05500
C1396       C  0.85672288  0.96555090  0.43839529    -0.32900
C1397       C  0.82747346  0.96396089  0.42252757     0.36400
C1398       C  0.81889770  0.97718054  0.39019670    -0.05800
C1399       C  0.84048464  0.99112814  0.37414280    -0.32800
C1400       C  0.86137313  0.51012121  0.39209684     0.36300
H1401       H  0.86266797  0.95544453  0.46333438     0.16600
O1402       O  0.80827421  0.94831958  0.43841814    -0.60300
H1403       H  0.82488996  0.52172191  0.35205240     0.16600
O1404       O  0.87961678  0.52744968  0.37733299    -0.60400
H1405       H  0.86706645  0.55225242  0.38364875     0.43600
H1406       H  0.79243327  0.96640667  0.45348382     0.43600
C1407       C  0.64027830  0.98219576  0.42733003    -0.05500
C1408       C  0.64753504  0.96632342  0.39602343    -0.32900
C1409       C  0.67671434  0.96482445  0.37803318     0.36400
C1410       C  0.69996227  0.97844894  0.39167088    -0.05800
C1411       C  0.68949726  0.50196866  0.42290075    -0.32800
C1412       C  0.66034573  0.50271040  0.44070651     0.36300
H1413       H  0.63012258  0.95556122  0.38503702     0.16600
O1414       O  0.68267333  0.94912730  0.34749952    -0.60300
H1415       H  0.70714071  0.51201777  0.43455569     0.16600
O1416       O  0.65532952  0.51553907  0.47243048    -0.60400
H1417       H  0.66913656  0.49551251  0.48661422     0.43600
H1418       H  0.66632869  0.96659514  0.33234124     0.43600
C1419       C  0.87278620  0.99027445  0.07535327    -0.05500
C1420       C  0.85235349  0.47861602  0.06139964    -0.32900
C1421       C  0.82222154  0.47927526  0.07703240     0.36400
C1422       C  0.81300420  0.99079534  0.10935846    -0.05800
C1423       C  0.83594238  0.00367280  0.12454174    -0.32800
C1424       C  0.86545857  0.00356386  0.10790366     0.36300
H1425       H  0.85710417  0.46984178  0.03590275     0.16600
O1426       O  0.80000055  0.46832567  0.05966277    -0.60300
H1427       H  0.83092018  0.01412811  0.14947067     0.16600
O1428       O  0.88710250  0.01631157  0.12391439    -0.60400
H1429       H  0.90417275  0.99609207  0.13586509     0.43600
H1430       H  0.80946190  0.44266550  0.06244054     0.43600
C1431       C  0.69403199  0.99171464  0.11217266    -0.05500
C1432       C  0.68670078  0.50850375  0.08046711    -0.32900
C1433       C  0.65752733  0.50878612  0.06316014     0.36400
C1434       C  0.63468664  0.99269118  0.07727998    -0.05800
C1435       C  0.64472035  0.97437930  0.10723357    -0.32800
C1436       C  0.67365084  0.97430902  0.12491814     0.36300
H1437       H  0.69954055  0.52527652  0.07228274     0.16600
O1438       O  0.64625266  0.53036466  0.03633530    -0.60300
H1439       H  0.62985212  0.96033878  0.11731740     0.16600
O1440       O  0.68175610  0.95697801  0.15454425    -0.60400
H1441       H  0.69914008  0.93340118  0.14906337     0.43600
H1442       H  0.63145079  0.55347467  0.04562253     0.43600
O1443       O  0.59369762  0.96518343  0.56766828    -0.75300
O1444       O  0.58616588  0.52151566  0.53517457    -0.54200
C1445       C  0.60561019  0.98830668  0.55946013     0.78400
O1446       O  0.52734483  0.90269486  0.93420696    -0.59900
O1447       O  0.98091316  0.90437731  0.96194574    -0.52900
C1448       C  0.00394900  0.89074999  0.93927065     0.70500
O1449       O  0.59623322  0.96236150  0.93812111    -0.74400
O1450       O  0.59413729  0.50977132  0.96438755    -0.55000
C1451       C  0.60746838  0.98627086  0.94504833     0.76500
O1452       O  0.52606301  0.90346213  0.56861116    -0.59600
O1453       O  0.98338976  0.90415425  0.53820244    -0.52700
C1454       C  0.00658969  0.89111511  0.56065104     0.73000
Zr1455     Zr  0.54563851  0.94902932  0.55149644     2.54700
O1456       O  0.59757679  0.89522722  0.55225172    -0.80200
O1457       O  0.54235945  0.95415143  0.61157804    -0.93600
Zr1458     Zr  0.54743247  0.94726025  0.95261067     2.64700
O1459       O  0.59630517  0.89132576  0.95781712    -0.98500
O1460       O  0.55250027  0.94708419  0.89255752    -0.80600
O1461       O  0.56716985  0.96408877  0.50202141    -0.83900
O1462       O  0.52826613  0.92822765  0.50281904    -2.18700
O1463       O  0.91278461  0.51892158  0.56552577    -0.67300
O1464       O  0.91950343  0.96491157  0.53701098    -0.51900
C1465       C  0.90129972  0.49519605  0.55829347     0.71400
O1466       O  0.98155430  0.57711157  0.93267163    -0.60200
O1467       O  0.52949078  0.57582373  0.96386897    -0.52200
C1468       C  0.50578709  0.58986692  0.94197307     0.73200
O1469       O  0.91741234  0.51111172  0.93366009    -0.71600
O1470       O  0.91766169  0.96730141  0.96205180    -0.50300
C1471       C  0.90601290  0.48755841  0.94184710     0.74600
O1472       O  0.97756689  0.58343619  0.56355271    -0.67000
O1473       O  0.52225575  0.58219071  0.53237792    -0.54200
C1474       C  0.49868792  0.59547315  0.55465224     0.73000
Zr1475     Zr  0.95885726  0.53723362  0.54736340     2.77500
O1476       O  0.90690654  0.59065949  0.54183455    -0.97700
O1477       O  0.95748898  0.53981242  0.60758060    -0.78500
Zr1478     Zr  0.96339925  0.53080285  0.94991363     2.70100
O1479       O  0.91018825  0.58328131  0.94752605    -0.79800
O1480       O  0.96871903  0.52577064  0.88988068    -0.98900
Zr1481     Zr  0.53810582  0.53082960  0.49782456     2.21500
Zr1482     Zr  0.96721053  0.95411987  0.99837596     2.11100
O1483       O  0.94285371  0.51504130  0.99946881    -2.47600
O1484       O  0.97993921  0.55239958  0.99877494    -0.79600
O1485       O  0.98527746  0.97321851  0.55050676    -0.71800
O1486       O  0.52393866  0.50808982  0.94994360    -2.32700
O1487       O  0.52067706  0.51263835  0.54816530    -2.28900
O1488       O  0.98558160  0.97148131  0.94813294    -0.73500
H1489       H  0.53601989  0.90317726  0.50337037     0.78500
H1490       H  0.53231474  0.51612915  0.93062484     0.79500
H1491       H  0.91770351  0.52338926  0.99914493     0.81800
H1492       H  0.52833629  0.52179207  0.56728525     0.79400
H1493       H  0.52984641  0.94774326  0.88431429     0.42400
H1494       H  0.96071186  0.50703779  0.88388796     0.41400
H1495       H  0.90882748  0.59121837  0.92429241     0.41100
H1496       H  0.90857740  0.59903324  0.51923437     0.39000
H1497       H  0.97264811  0.51594471  0.61460119     0.42100
H1498       H  0.55749993  0.93071846  0.61968898     0.36900
H1499       H  0.60627806  0.89333544  0.57527722     0.43000
H1500       H  0.60711042  0.88673423  0.93554488     0.39400
H1501       H  0.88719780  0.58301160  0.54062003     0.44400
H1502       H  0.51836768  0.95648729  0.61710687     0.43100
H1503       H  0.61335847  0.89617282  0.97193028     0.43200
H1504       H  0.95026279  0.54737471  0.88143222     0.43600
C1505       C  0.50289256  0.77050097  0.62934901     0.80200
N1506       N  0.50168169  0.74318420  0.61173994    -0.78100
C1507       C  0.50255728  0.71399144  0.62730340     0.82700
N1508       N  0.50444432  0.71241004  0.66093505    -0.78000
C1509       C  0.50562826  0.73955602  0.67888066     0.82800
N1510       N  0.50471739  0.76846671  0.66283410    -0.79700
C1511       C  0.50633390  0.76806533  0.87323055     0.80200
N1512       N  0.50658341  0.73971797  0.88991391    -0.78100
C1513       C  0.50831060  0.71063857  0.87330739     0.82700
N1514       N  0.50939769  0.71043439  0.83961294    -0.78000
C1515       C  0.50892374  0.73871119  0.82260790     0.82800
N1516       N  0.50768506  0.76723269  0.83969293    -0.79700
C1517       C  0.78431183  0.98671485  0.62853588     0.80200
N1518       N  0.78302533  0.98961255  0.66198834    -0.78100
C1519       C  0.75471096  0.99058416  0.67918653     0.82700
N1520       N  0.72728421  0.98848604  0.66247237    -0.78000
C1521       C  0.72803507  0.98587219  0.62898591     0.82800
N1522       N  0.75646531  0.98524982  0.61203071    -0.79700
C1523       C  0.78264863  0.98722059  0.87254824     0.80200
N1524       N  0.78074635  0.99103844  0.83922393    -0.78100
C1525       C  0.75249611  0.99135248  0.82229685     0.82700
N1526       N  0.72583733  0.98795451  0.83919845    -0.78000
C1527       C  0.72729821  0.98428842  0.87260845     0.82800
N1528       N  0.75582016  0.98394375  0.88915048    -0.79700
C1529       C  0.75374919  0.99364268  0.71576821    -0.05500
C1530       C  0.72252188  0.99920648  0.73266861    -0.32900
C1531       C  0.72126263  0.99951224  0.76724609     0.36400
C1532       C  0.75164315  0.99429041  0.78574481    -0.05800
C1533       C  0.78237265  0.99062331  0.76882201    -0.32800
C1534       C  0.78363328  0.99039114  0.73431836     0.36300
H1535       H  0.69888920  0.00284370  0.71912855     0.16600
O1536       O  0.69008139  0.00525098  0.78253342    -0.60300
H1537       H  0.78853315  0.51961961  0.78210093     0.16600
O1538       O  0.79084425  0.52774806  0.71854807    -0.60400
H1539       H  0.77394443  0.55192595  0.71463486     0.43600
H1540       H  0.68623503  0.98340226  0.77933084     0.43600
C1541       C  0.50868406  0.73888802  0.78580565    -0.05500
C1542       C  0.51931981  0.70729670  0.76814036    -0.32900
C1543       C  0.51864529  0.70687501  0.73341840     0.36400
C1544       C  0.50710038  0.73845937  0.71561471    -0.05800
C1545       C  0.00203935  0.76930945  0.73224307    -0.32800
C1546       C  0.00018149  0.77039158  0.76673255     0.36300
H1547       H  0.52852347  0.68270195  0.78123143     0.16600
O1548       O  0.53066583  0.67540207  0.71724208    -0.60300
H1549       H  0.99993070  0.79278464  0.71929915     0.16600
O1550       O  0.99613202  0.80099701  0.78237326    -0.60400
H1551       H  0.97057893  0.81457666  0.78325667     0.43600
H1552       H  0.51089255  0.66773773  0.71746116     0.43600
C1553       C  0.50814906  0.67963499  0.89146991    -0.05500
C1554       C  0.99548282  0.65439999  0.87267801    -0.32900
C1555       C  0.99663594  0.62423621  0.88872279     0.36400
C1556       C  0.50659516  0.62041894  0.92438046    -0.05800
C1557       C  0.51094932  0.64723099  0.94236190    -0.32800
C1558       C  0.51127820  0.67686354  0.92635190     0.36300
H1559       H  0.98923534  0.65726723  0.84653220     0.16600
O1560       O  0.99106607  0.59889370  0.87071750    -0.60300
H1561       H  0.51349965  0.64548346  0.96906805     0.16600
O1562       O  0.51532103  0.70251243  0.94512412    -0.60400
H1563       H  0.49212861  0.71546534  0.95526292     0.44200
H1564       H  0.96535350  0.60667840  0.86925613     0.43600
C1565       C  0.50503984  0.79962894  0.89103898    -0.05500
C1566       C  0.52164273  0.81993094  0.87709510    -0.32900
C1567       C  0.52133429  0.84983358  0.89311179     0.36400
C1568       C  0.50334142  0.86064175  0.92344706    -0.05800
C1569       C  0.98471205  0.84094095  0.93561187    -0.32800
C1570       C  0.98413936  0.81100264  0.92023131     0.36300
H1571       H  0.53544805  0.81234090  0.85377246     0.16600
O1572       O  0.53786550  0.86880254  0.87826345    -0.60300
H1573       H  0.97064936  0.84940569  0.95868338     0.16600
O1574       O  0.96500855  0.79414808  0.93417696    -0.60400
H1575       H  0.97975467  0.77996516  0.95233203     0.43600
H1576       H  0.56303980  0.85590809  0.88294330     0.43600
C1577       C  0.50108996  0.68423600  0.60797971    -0.05500
C1578       C  0.99133278  0.66095234  0.62302078    -0.32900
C1579       C  0.99028444  0.63190311  0.60659654     0.36400
C1580       C  0.49862488  0.62634262  0.57289063    -0.05800
C1581       C  0.51002197  0.65005437  0.55718594    -0.32800
C1582       C  0.51092081  0.67900623  0.57426441     0.36300
H1583       H  0.98214056  0.66562857  0.64837199     0.16600
O1584       O  0.97813005  0.61024822  0.62328314    -0.60300
H1585       H  0.51811223  0.64626125  0.53147559     0.16600
O1586       O  0.52272814  0.70117934  0.55802469    -0.60400
H1587       H  0.50213496  0.71768499  0.54605500     0.43600
H1588       H  0.99875862  0.59331512  0.63486414     0.43600
C1589       C  0.50229214  0.80212577  0.61216016    -0.05500
C1590       C  0.48884177  0.80929864  0.57988445    -0.32900
C1591       C  0.99087463  0.83860559  0.56413499     0.36400
C1592       C  0.50163812  0.86153406  0.57792074    -0.05800
C1593       C  0.51532387  0.85423112  0.61006371    -0.32800
C1594       C  0.51533414  0.82518674  0.62731822     0.36300
H1595       H  0.97996236  0.79281189  0.56944810     0.16600
O1596       O  0.97460535  0.84608654  0.53392356    -0.60300
H1597       H  0.52584635  0.87130300  0.62210194     0.16600
O1598       O  0.52936355  0.81902766  0.65853444    -0.60400
H1599       H  0.51032748  0.83364827  0.67344955     0.43600
H1600       H  0.94949750  0.85891354  0.53899298     0.43600
C1601       C  0.87255797  0.99017213  0.92243014    -0.05500
C1602       C  0.85467061  0.97059161  0.93565674    -0.32900
C1603       C  0.82498080  0.96980827  0.92012403     0.36400
C1604       C  0.81310966  0.98817122  0.89039716    -0.05800
C1605       C  0.83077955  0.00781971  0.87721994    -0.32800
C1606       C  0.86770550  0.49983896  0.89112485     0.36300
H1607       H  0.86353125  0.95589668  0.95829208     0.16600
O1608       O  0.80871218  0.94985137  0.93349717    -0.60300
H1609       H  0.83308611  0.50976506  0.84980506     0.16600
O1610       O  0.88924410  0.51240520  0.87475629    -0.60400
H1611       H  0.87838208  0.53805502  0.87769535     0.43600
H1612       H  0.79331061  0.96452268  0.95112117     0.43600
C1613       C  0.63875219  0.98479851  0.92723589    -0.05500
C1614       C  0.64321651  0.97381285  0.89411478    -0.32900
C1615       C  0.67196043  0.97323510  0.87593900     0.36400
C1616       C  0.69727932  0.98304890  0.89117896    -0.05800
C1617       C  0.69425781  0.49178543  0.92417280    -0.32800
C1618       C  0.66552792  0.49130200  0.94180713     0.36300
H1619       H  0.62392347  0.96634462  0.88197760     0.16600
O1620       O  0.67533613  0.96234023  0.84358346    -0.60300
H1621       H  0.71431897  0.49695292  0.93753528     0.16600
O1622       O  0.66380517  0.49691574  0.97532053    -0.60400
H1623       H  0.68014080  0.47476230  0.98510863     0.43600
H1624       H  0.65687805  0.98126268  0.83141077     0.43600
C1625       C  0.87545170  0.98655082  0.57780733    -0.05500
C1626       C  0.84668805  0.48382785  0.56077649    -0.32900
C1627       C  0.81638352  0.48529752  0.57695643     0.36400
C1628       C  0.81565651  0.98601622  0.61066768    -0.05800
C1629       C  0.83778754  0.99972414  0.62622732    -0.32800
C1630       C  0.86738484  0.00003266  0.61017712     0.36300
H1631       H  0.85170042  0.47353435  0.53578585     0.16600
O1632       O  0.79463588  0.47264557  0.56100759    -0.60300
H1633       H  0.83200254  0.01069151  0.65092334     0.16600
O1634       O  0.88822531  0.01355918  0.62648830    -0.60400
H1635       H  0.90591968  0.99349753  0.63809867     0.43600
H1636       H  0.80116221  0.44861308  0.56949498     0.43600
C1637       C  0.69737479  0.98566486  0.61111429    -0.05500
C1638       C  0.67609035  0.52354311  0.58397572    -0.32900
C1639       C  0.64642654  0.52415262  0.56713196     0.36400
C1640       C  0.63706143  0.98801213  0.57726912    -0.05800
C1641       C  0.65133675  0.96424662  0.60333879    -0.32800
C1642       C  0.68101895  0.96321004  0.62035996     0.36300
H1643       H  0.68845419  0.54084003  0.57612037     0.16600
O1644       O  0.63390704  0.54692004  0.54129722    -0.60300
H1645       H  0.63947096  0.94639703  0.61075527     0.16600
O1646       O  0.69399786  0.93996269  0.64579092    -0.60400
H1647       H  0.71229944  0.91920633  0.63557495     0.43600
H1648       H  0.61696560  0.56862566  0.55143265     0.43600
loop_ 
_geom_bond_atom_site_label_1 
_geom_bond_atom_site_label_2 
_geom_bond_distance 
_geom_bond_site_symmetry_2 
_ccdc_geom_bond_type 
O1          Zr13   2.442       .  S
O1            C3   1.289       .  A
O2          Zr39   2.409   1_554  S
O2          C415   1.283   1_545  A
C3          O414   1.284       .  A
C3          C198   1.487       .  S
O4          Zr16   2.439       .  S
O4          C830   1.288       .  A
O5          Zr40   2.419       .  S
O5            C6   1.286       .  A
C6          O828   1.287       .  A
C6          C950   1.485       .  S
O7          Zr16   2.432       .  S
O7            C9   1.287       .  A
O8         Zr245   2.415       .  S
O8          C421   1.285   1_545  A
C9          O420   1.287       .  A
C9          C171   1.480       .  S
O10         Zr13   2.438       .  S
O10         C836   1.288       .  A
O11        Zr246   2.420       .  S
O11          C12   1.286       .  A
C12         O834   1.286       .  A
C12         C974   1.474       .  S
Zr13         O14   2.434       .  S
Zr13         O15   2.437       .  S
Zr13         O19   2.369       .  S
Zr13         O20   2.372       .  S
Zr13        O867   2.371   1_455  S
Zr13        O457   2.372       .  S
O14          H57   0.990       .  S
O15          H56   0.990       .  S
O15          H60   0.990       .  S
Zr16         O17   2.435       .  S
Zr16         O18   2.433       .  S
Zr16        O226   2.361       .  S
Zr16        O225   2.370       .  S
Zr16        O456   2.373       .  S
Zr16        O870   2.371   1_455  S
O17          H58   0.990       .  S
O17          H61   0.990       .  S
O18          H51   0.990       .  S
O19        Zr222   2.369   1_554  S
O19        Zr451   2.378       .  S
O20        Zr222   2.366   1_554  S
O20       Zr1070   2.377   1_455  S
O20          H47   0.964       .  S
O21         Zr33   2.426       .  S
O21          C23   1.285   1_545  A
O22        Zr246   2.412       .  S
O22         C435   1.285       .  A
C23         O434   1.289       .  A
C23         C595   1.482       .  S
O24         Zr36   2.440       .  S
O24         C850   1.288       .  A
O25        Zr245   2.425       .  S
O25          C26   1.286   1_455  A
C26         O848   1.289       .  A
C26         C114   1.477       .  S
O27         Zr36   2.454       .  S
O27          C29   1.290   1_545  A
O28         Zr40   2.417       .  S
O28         C441   1.286       .  A
C29         O440   1.285       .  A
C29         C571   1.486       .  S
O30         Zr33   2.425       .  S
O30         C856   1.285       .  A
O31         Zr39   2.418   1_554  S
O31          C32   1.286       .  A
C32         O854   1.289   1_455  A
C32         C138   1.483       .  S
Zr33         O34   2.437       .  S
Zr33         O35   2.435       .  S
Zr33        O247   2.367   1_554  S
Zr33        O248   2.373   1_554  S
Zr33        O869   2.367       .  S
Zr33        O455   2.369   1_545  S
O34          H54   0.990       .  S
O34          H59   0.990       .  S
O35          H55   0.990       .  S
Zr36         O37   2.434       .  S
Zr36         O38   2.435       .  S
Zr36         O42   2.376       .  S
Zr36         O41   2.369       .  S
Zr36        O458   2.363   1_545  S
Zr36        O868   2.372       .  S
O37          H53   0.990       .  S
O38          H52   0.990       .  S
O38          H62   0.990       .  S
Zr39        O214   2.419       .  S
Zr39        O231   2.420       .  S
Zr39         O45   2.382   1_556  S
Zr39        O431   2.380   1_545  S
Zr39       O1072   2.375   1_455  S
Zr39        O250   2.381       .  S
Zr40        O217   2.416       .  S
Zr40        O228   2.425       .  S
Zr40         O46   2.378       .  S
Zr40       O1050   2.383       .  S
Zr40        O453   2.383       .  S
Zr40        O249   2.380       .  S
O41        Zr239   2.374       .  S
O41        Zr452   2.382   1_545  S
O41          H49   0.966       .  S
O42        Zr239   2.365       .  S
O42       Zr1069   2.376       .  S
O43        Zr837   2.372       .  S
O43        Zr445   2.373       .  S
O43        Zr246   2.380       .  S
O44        Zr428   2.372   1_545  S
O44        Zr860   2.372   1_455  S
O44        Zr245   2.384       .  S
O44          H48   0.967       .  S
O45        Zr425   2.369   1_545  S
O45        Zr857   2.368   1_455  S
O45          H50   0.967       .  S
O46        Zr840   2.368       .  S
O46        Zr448   2.369       .  S
C63         C147   1.483       .  S
C63          N64   1.360       .  A
C63          N68   1.355       .  A
N64          C65   1.359       .  A
C65         C135   1.483       .  S
C65          N66   1.360       .  A
N66          C67   1.357       .  A
C67         C102   1.481       .  S
C67          N68   1.354       .  A
C69         C123   1.483       .  S
C69          N70   1.360       .  A
C69          N74   1.357   1_655  A
N70          C71   1.361       .  A
C71         C111   1.495       .  S
C71          N72   1.361   1_655  A
N72          C73   1.359       .  A
C73          C99   1.483       .  S
C73          N74   1.356       .  A
C75         C186   1.481       .  S
C75          N76   1.358       .  A
C75          N80   1.358       .  A
N76          C77   1.357       .  A
C77          C87   1.478       .  S
C77          N78   1.356       .  A
N78          C79   1.354       .  A
C79         C195   1.468       .  S
C79          N80   1.356       .  A
C81         C162   1.480       .  S
C81          N82   1.357       .  A
C81          N86   1.358       .  A
N82          C83   1.356       .  A
C83          C90   1.479       .  S
C83          N84   1.357       .  A
N84          C85   1.358       .  A
C85         C174   1.479       .  S
C85          N86   1.359       .  A
C87          C88   1.404       .  A
C87          C92   1.411       .  A
C88          C89   1.396       .  A
C88          H93   1.083       .  S
C89          C90   1.409       .  A
C89          O94   1.371       .  S
C90          C91   1.406       .  A
C91          C92   1.398       .  A
C91         H507   1.084       .  S
C92         O508   1.372       .  S
O94          H98   0.992       .  S
H95         C503   1.083       .  S
O96         C504   1.371       .  S
O96          H97   0.992   1_565  S
C99         C100   1.405   1_455  A
C99         C928   1.412       .  A
C100        C101   1.399       .  A
C100        H105   1.083       .  S
C101        C102   1.410   1_655  A
C101        O106   1.371       .  S
C102        C927   1.405       .  A
C103        C104   1.395       .  A
C103        C926   1.404       .  A
C103        H107   1.083       .  S
C104        C923   1.413       .  A
C104        O108   1.372       .  S
O106        H110   0.992       .  S
O108        H109   0.992       .  S
C111        C116   1.416       .  A
C111        C936   1.410       .  A
C112        C113   1.399       .  A
C112        C935   1.410       .  A
C112        H117   1.083       .  S
C113        C938   1.404       .  A
C113        O118   1.372       .  S
C114        C115   1.402       .  A
C114        C937   1.405       .  A
C115        C116   1.403       .  A
C115        H119   1.084       .  S
C116        O120   1.371       .  S
O118        H122   0.992       .  S
O120        H121   0.992       .  S
C123        C124   1.405   1_655  A
C123        C952   1.409       .  A
C124        C125   1.399       .  A
C124        H129   1.084       .  S
C125        C126   1.412       .  A
C125        O130   1.372       .  S
C126        C830   1.486       .  S
C126        C951   1.406   1_455  A
C127        C128   1.400       .  A
C127        C950   1.407       .  A
C127        H131   1.082       .  S
C128        C947   1.407       .  A
C128        O132   1.372       .  S
O130        H134   0.992       .  S
O132        H133   0.992       .  S
C135        C140   1.412       .  A
C135        C960   1.404   1_455  A
C136        C137   1.394       .  A
C136        C959   1.403       .  A
C136        H141   1.084       .  S
C137        C962   1.412       .  A
C137        O142   1.372       .  S
C138        C139   1.406       .  A
C138        C961   1.411   1_455  A
C139        C140   1.402       .  A
C139        H143   1.084       .  S
C140        O144   1.372       .  S
O142        H146   0.992       .  S
O144        H145   0.992       .  S
C147        C148   1.405   1_455  A
C147        C152   1.416       .  A
C148        C973   1.396       .  A
C148        H977   1.083       .  S
C149        C972   1.397       .  A
C149        C974   1.407       .  A
C149        O154   1.370       .  S
C150        C836   1.472       .  S
C150        C151   1.400       .  A
C150        C973   1.407   1_455  A
C151        C152   1.397       .  A
C151        H155   1.084       .  S
C152        O156   1.371       .  S
H153        C972   1.083       .  S
O154        H158   0.992       .  S
O156        H157   0.992   1_455  S
C159        C441   1.486       .  S
C159        C160   1.408       .  A
C159        C576   1.412       .  A
C160        C161   1.401       .  A
C160        H165   1.084       .  S
C161        C162   1.410       .  A
C161        O166   1.372       .  S
C162        C163   1.403       .  A
C163        C576   1.397       .  A
C163        H579   1.084       .  S
C164        C571   1.411   1_545  A
C164        C575   1.399       .  A
C164        O168   1.371       .  S
O166        H170   0.992       .  S
H167        C575   1.083       .  S
O168        H169   0.992       .  S
C171        C172   1.405       .  A
C171        C588   1.409       .  A
C172        C173   1.398       .  A
C172        H177   1.084       .  S
C173        C174   1.410       .  A
C173        O178   1.372       .  S
C174        C587   1.405       .  A
C175        C176   1.400       .  A
C175        C586   1.406   1_545  A
C175        H179   1.084       .  S
C176        C583   1.409   1_545  A
C176        O180   1.371       .  S
O178        H182   0.992       .  S
O180        H181   0.992   1_545  S
C183        C435   1.478       .  S
C183        C188   1.410       .  A
C183        C596   1.404       .  A
C184        C185   1.400       .  A
C184        C595   1.404       .  A
C184        H189   1.084       .  S
C185        C598   1.411       .  A
C185        O190   1.371       .  S
C186        C187   1.406       .  A
C186        C597   1.412       .  A
C187        C188   1.398       .  A
C187        H191   1.083       .  S
C188        O192   1.372       .  S
O190        H194   0.992       .  S
O192        H193   0.992       .  S
C195        C200   1.406       .  A
C195        C608   1.398       .  A
C196        C197   1.398       .  A
C196        C607   1.401   1_545  A
C196        H201   1.084       .  S
C197        C610   1.416   1_545  A
C197        O202   1.371       .  S
C198        C199   1.408       .  A
C198        C609   1.417       .  A
C199        C200   1.397       .  A
C199        H203   1.083       .  S
C200        O204   1.372       .  S
O202        H206   0.992       .  S
O204        H205   0.992       .  S
O207       Zr219   2.457       .  S
O207        C209   1.292       .  A
O208       Zr245   2.418       .  S
O208        C621   1.285   1_545  A
C209        O620   1.284       .  A
C209        C404   1.492       .  S
O210       Zr222   2.434       .  S
O210       C1036   1.286       .  A
O211       Zr246   2.419   1_556  S
O211        C212   1.286       .  A
C212       O1034   1.289       .  A
C212       C1156   1.482       .  S
O213       Zr222   2.426       .  S
O213        C215   1.286       .  A
O214        C627   1.286   1_545  A
C215        O626   1.284       .  A
C215        C377   1.469       .  S
O216       Zr219   2.451       .  S
O216       C1042   1.290       .  A
O217        C218   1.285       .  A
C218       O1040   1.286       .  A
C218       C1180   1.468       .  S
Zr219       O220   2.435       .  S
Zr219       O221   2.436       .  S
Zr219       O225   2.373       .  S
Zr219       O226   2.375       .  S
Zr219      O1073   2.373   1_455  S
Zr219       O663   2.368       .  S
O220        H263   0.990       .  S
O221        H262   0.990       .  S
O221        H266   0.990       .  S
Zr222       O223   2.437       .  S
Zr222       O224   2.433       .  S
Zr222       O662   2.368       .  S
Zr222      O1076   2.368   1_455  S
O223        H264   0.990       .  S
O223        H267   0.990       .  S
O224        H257   0.990       .  S
O225       Zr657   2.383       .  S
O226       Zr864   2.384   1_455  S
O226        H253   0.965       .  S
O227       Zr239   2.436       .  S
O227        C229   1.288   1_545  A
O228        C641   1.287       .  A
C229        O640   1.286       .  A
C229        C801   1.479       .  S
O230       Zr242   2.443       .  S
O230       C1056   1.288       .  A
O231        C232   1.286       .  A
C232       O1054   1.286   1_455  A
C232        C320   1.473       .  S
O233       Zr242   2.433       .  S
O233        C235   1.286   1_545  A
O234       Zr246   2.418   1_556  S
O234        C647   1.286       .  A
C235        O646   1.287       .  A
C235        C777   1.483       .  S
O236       Zr239   2.450       .  S
O236       C1062   1.290       .  A
O237       Zr245   2.410       .  S
O237        C238   1.284       .  A
C238       O1060   1.289   1_455  A
C238        C344   1.477       .  S
Zr239       O240   2.435       .  S
Zr239       O241   2.435       .  S
Zr239      O1075   2.366       .  S
Zr239       O661   2.378   1_545  S
O240        H260   0.990       .  S
O240        H265   0.990       .  S
O241        H261   0.990       .  S
Zr242       O243   2.435       .  S
Zr242       O244   2.435       .  S
Zr242       O248   2.370       .  S
Zr242       O247   2.372       .  S
Zr242       O664   2.375   1_545  S
Zr242      O1074   2.365       .  S
O243        H259   0.990       .  S
O244        H258   0.990       .  S
O244        H268   0.990       .  S
Zr245       O637   2.377   1_545  S
Zr245       O866   2.377   1_455  S
Zr245       O251   2.382       .  S
Zr246       O844   2.380       .  S
Zr246       O659   2.384       .  S
Zr246       O252   2.376   1_554  S
O247       Zr658   2.382   1_545  S
O247        H255   0.966       .  S
O248       Zr863   2.377       .  S
O249      Zr1043   2.376       .  S
O249       Zr651   2.371       .  S
O250       Zr634   2.372   1_545  S
O250      Zr1066   2.369   1_455  S
O250        H254   0.967       .  S
O251       Zr631   2.372   1_545  S
O251      Zr1063   2.370   1_455  S
O251        H256   0.968       .  S
O252      Zr1046   2.368       .  S
O252       Zr654   2.369       .  S
C269        C353   1.483       .  S
C269        N270   1.360       .  A
C269        N274   1.356       .  A
N270        C271   1.359       .  A
C271        C341   1.481       .  S
C271        N272   1.357       .  A
N272        C273   1.355       .  A
C273        C308   1.482       .  S
C273        N274   1.356       .  A
C275        C329   1.486       .  S
C275        N276   1.359       .  A
C275        N280   1.356       .  A
N276        C277   1.359       .  A
C277        C317   1.487       .  S
C277        N278   1.359       .  A
N278        C279   1.357       .  A
C279        C305   1.482       .  S
C279        N280   1.356       .  A
C281        C392   1.487       .  S
C281        N282   1.358       .  A
C281        N286   1.361       .  A
N282        C283   1.357       .  A
C283        C293   1.489       .  S
C283        N284   1.358       .  A
N284        C285   1.357       .  A
C285        C401   1.479       .  S
C285        N286   1.360       .  A
C287        C368   1.474       .  S
C287        N288   1.357       .  A
C287        N292   1.356       .  A
N288        C289   1.359       .  A
C289        C296   1.489       .  S
C289        N290   1.357       .  A
N290        C291   1.359       .  A
C291        C380   1.482       .  S
C291        N292   1.357       .  A
C293        C294   1.406       .  A
C293        C298   1.413       .  A
C294        C295   1.399       .  A
C294        H299   1.083       .  S
C295        C296   1.414       .  A
C295        O300   1.370       .  S
C296        C297   1.405       .  A
C297        C298   1.398       .  A
C297        H713   1.083       .  S
C298        O714   1.371       .  S
O300        H304   0.992       .  S
H301        C709   1.083       .  S
O302        C710   1.372       .  S
O302        H303   0.992       .  S
C305        C306   1.405       .  A
C305       C1134   1.412   1_455  A
C306        C307   1.399       .  A
C306        H311   1.083       .  S
C307        C308   1.412       .  A
C307        O312   1.372       .  S
C308       C1133   1.404   1_455  A
C309       C1132   1.406       .  A
C309        C310   1.398       .  A
C309        H313   1.083       .  S
C310       C1129   1.414       .  A
C310        O314   1.372       .  S
O312        H316   0.992   1_455  S
O314        H315   0.992       .  S
C317       C1142   1.408   1_455  A
C317        C322   1.414       .  A
C318       C1141   1.409       .  A
C318        C319   1.401       .  A
C318        H323   1.083       .  S
C319       C1144   1.407       .  A
C319        O324   1.372       .  S
C320       C1143   1.407   1_455  A
C320        C321   1.400       .  A
C321        C322   1.398       .  A
C321        H325   1.084       .  S
C322        O326   1.370       .  S
O324        H328   0.992       .  S
O326        H327   0.992   1_455  S
C329        C330   1.409       .  A
C329       C1158   1.412   1_455  A
C330        C331   1.400       .  A
C330        H335   1.083       .  S
C331        C332   1.407       .  A
C331        O336   1.372       .  S
C332       C1036   1.475       .  S
C332       C1157   1.399   1_455  A
C333       C1156   1.404       .  A
C333        C334   1.403       .  A
C333        H337   1.081       .  S
C334       C1153   1.412       .  A
C334        O338   1.372       .  S
O336        H340   0.992       .  S
O338        H339   0.992       .  S
C341       C1166   1.406   1_455  A
C341        C346   1.411       .  A
C342       C1165   1.404       .  A
C342        C343   1.396       .  A
C342        H347   1.083       .  S
C343       C1168   1.410       .  A
C343        O348   1.372       .  S
C344       C1167   1.408   1_455  A
C344        C345   1.405       .  A
C345        C346   1.400       .  A
C345        H349   1.084       .  S
C346        O350   1.372       .  S
O348        H352   0.992       .  S
O350        H351   0.992       .  S
C353        C354   1.405   1_455  A
C353        C358   1.413       .  A
C354       C1179   1.400       .  A
C354       H1183   1.084       .  S
C355       C1178   1.397       .  A
C355       C1180   1.405       .  A
C355        O360   1.371       .  S
C356       C1042   1.479       .  S
C356       C1179   1.411   1_455  A
C356        C357   1.402       .  A
C357        C358   1.398       .  A
C357        H361   1.084       .  S
C358        O362   1.372       .  S
H359       C1178   1.083       .  S
O360        H364   0.991       .  S
O362        H363   0.992       .  S
C365        C647   1.489       .  S
C365        C366   1.408       .  A
C365        C782   1.416       .  A
C366        C367   1.398       .  A
C366        H371   1.083       .  S
C367        C368   1.406       .  A
C367        O372   1.372       .  S
C368        C369   1.401       .  A
C369        C782   1.400       .  A
C369        H785   1.084       .  S
C370        C777   1.413   1_545  A
C370        C781   1.397       .  A
C370        O374   1.372       .  S
O372        H376   0.992       .  S
H373        C781   1.084       .  S
O374        H375   0.992       .  S
C377        C378   1.399       .  A
C377        C794   1.407       .  A
C378        C379   1.393       .  A
C378        H383   1.084       .  S
C379        C380   1.411       .  A
C379        O384   1.371       .  S
C380        C793   1.409       .  A
C381        C792   1.405   1_545  A
C381        C382   1.397   1_545  A
C381        H385   1.084       .  S
C382        C789   1.408       .  A
C382        O386   1.370   1_565  S
O384        H388   0.992       .  S
O386        H387   0.992   1_545  S
C389        C641   1.482       .  S
C389        C802   1.405       .  A
C389        C394   1.410       .  A
C390        C801   1.405       .  A
C390        C391   1.399       .  A
C390        H395   1.084       .  S
C391        C804   1.411   1_565  A
C391        O396   1.371       .  S
C392        C803   1.412       .  A
C392        C393   1.407       .  A
C393        C394   1.400       .  A
C393        H397   1.083       .  S
C394        O398   1.372       .  S
O396        H400   0.992       .  S
O398        H399   0.992       .  S
C401        C814   1.401       .  A
C401        C406   1.409       .  A
C402        C813   1.399   1_545  A
C402        C403   1.399       .  A
C402        H407   1.084       .  S
C403        C816   1.416   1_545  A
C403        O408   1.371       .  S
C404        C815   1.417       .  A
C404        C405   1.407       .  A
C405        C406   1.399       .  A
C405        H409   1.083       .  S
C406        O410   1.372       .  S
O408        H412   0.992       .  S
O410        H411   0.992       .  S
O413       Zr425   2.453       .  S
O413        C415   1.291       .  A
O414       Zr451   2.411       .  S
C415        C610   1.487       .  S
O416       Zr428   2.435       .  S
O416       C1242   1.287       .  A
O417       Zr452   2.420       .  S
O417        C418   1.286       .  A
C418       O1240   1.287       .  A
C418       C1362   1.477       .  S
O419       Zr428   2.432       .  S
O419        C421   1.287       .  A
O420       Zr657   2.427       .  S
C421        C583   1.474       .  S
O422       Zr425   2.442       .  S
O422       C1248   1.289       .  A
O423       Zr658   2.417   1_554  S
O423        C424   1.285       .  A
C424       O1246   1.289       .  A
C424       C1386   1.475       .  S
Zr425       O426   2.436       .  S
Zr425       O427   2.436       .  S
Zr425       O431   2.370   1_554  S
Zr425       O432   2.372   1_554  S
Zr425      O1279   2.375   1_455  S
O426        H469   0.990       .  S
O427        H468   0.990       .  S
O427        H472   0.990       .  S
Zr428       O429   2.435       .  S
Zr428       O430   2.433       .  S
Zr428       O638   2.366       .  S
Zr428       O637   2.370       .  S
Zr428      O1282   2.369   1_455  S
O429        H470   0.990       .  S
O429        H473   0.990       .  S
O430        H463   0.990       .  S
O431       Zr634   2.374       .  S
O432       Zr634   2.367       .  S
O432      Zr1482   2.383   1_455  S
O432        H459   0.965       .  S
O433       Zr445   2.441       .  S
O433        C435   1.288       .  A
O434       Zr658   2.431   1_554  S
O436       Zr448   2.448       .  S
O436       C1262   1.290       .  A
O437       Zr657   2.426       .  S
O437        C438   1.287       .  A
C438       O1260   1.287   1_455  A
C438        C526   1.480       .  S
O439       Zr448   2.447       .  S
O439        C441   1.289       .  A
O440       Zr452   2.415       .  S
O442       Zr445   2.445       .  S
O442       C1268   1.289       .  A
O443       Zr451   2.413       .  S
O443        C444   1.284       .  A
C444       O1266   1.288   1_455  A
C444        C550   1.477       .  S
Zr445       O446   2.434       .  S
Zr445       O447   2.436       .  S
Zr445       O659   2.374       .  S
Zr445       O660   2.371       .  S
Zr445      O1281   2.367       .  S
O446        H466   0.990       .  S
O446        H471   0.990       .  S
O447        H467   0.990       .  S
Zr448       O449   2.436       .  S
Zr448       O450   2.435       .  S
Zr448       O454   2.376       .  S
Zr448       O453   2.376       .  S
Zr448      O1280   2.370       .  S
O449        H465   0.990       .  S
O450        H464   0.990       .  S
O450        H474   0.990       .  S
Zr451       O626   2.413   1_554  S
Zr451       O643   2.423   1_554  S
Zr451      O1484   2.376   1_454  S
Zr451       O662   2.380   1_554  S
Zr451       O457   2.381       .  S
Zr452       O629   2.417       .  S
Zr452       O640   2.416       .  S
Zr452      O1462   2.380       .  S
Zr452       O661   2.380       .  S
Zr452       O458   2.377       .  S
O453       Zr651   2.370       .  S
O453        H461   0.966       .  S
O454       Zr651   2.375       .  S
O454      Zr1481   2.382       .  S
O455      Zr1249   2.372       .  S
O455       Zr658   2.382   1_554  S
O456      Zr1272   2.368   1_455  S
O456       Zr657   2.381       .  S
O456        H460   0.967       .  S
O457      Zr1269   2.366   1_455  S
O457        H462   0.968       .  S
O458      Zr1252   2.369       .  S
C475        C559   1.479       .  S
C475        N476   1.358       .  A
C475        N480   1.358       .  A
N476        C477   1.357       .  A
C477        C547   1.481       .  S
C477        N478   1.357       .  A
N478        C479   1.356       .  A
C479        C514   1.487       .  S
C479        N480   1.358       .  A
C481        C535   1.485       .  S
C481        N482   1.357       .  A
C481        N486   1.357       .  A
N482        C483   1.358       .  A
C483        C523   1.486       .  S
C483        N484   1.360       .  A
N484        C485   1.360       .  A
C485        C511   1.487       .  S
C485        N486   1.357       .  A
C487        C598   1.482       .  S
C487        N488   1.359       .  A
C487        N492   1.359       .  A
N488        C489   1.357       .  A
C489        C499   1.487       .  S
C489        N490   1.357       .  A
N490        C491   1.355       .  A
C491        C607   1.476       .  S
C491        N492   1.359       .  A
C493        C574   1.485       .  S
C493        N494   1.359       .  A
C493        N498   1.358       .  A
N494        C495   1.359       .  A
C495        C502   1.490       .  S
C495        N496   1.357       .  A
N496        C497   1.357       .  A
C497        C586   1.480       .  S
C497        N498   1.358       .  A
C499        C500   1.405       .  A
C499        C504   1.412       .  A
C500        C501   1.397       .  A
C500        H505   1.083   1_565  S
C501        C502   1.413       .  A
C501        O506   1.371       .  S
C502        C503   1.407       .  A
C503        C504   1.400       .  A
O506        H510   0.992       .  S
O508        H509   0.992       .  S
C511        C512   1.405       .  A
C511       C1340   1.414       .  A
C512        C513   1.398       .  A
C512        H517   1.083   1_455  S
C513        C514   1.413       .  A
C513        O518   1.371   1_455  S
C514       C1339   1.405       .  A
C515       C1338   1.406       .  A
C515        C516   1.398       .  A
C515        H519   1.083       .  S
C516       C1335   1.414       .  A
C516        O520   1.371       .  S
O518        H522   0.992       .  S
O520        H521   0.992       .  S
C523       C1348   1.406   1_455  A
C523        C528   1.413       .  A
C524       C1347   1.407       .  A
C524        C525   1.400       .  A
C524        H529   1.083       .  S
C525       C1350   1.408       .  A
C525        O530   1.372       .  S
C526       C1349   1.410   1_455  A
C526        C527   1.402       .  A
C527        C528   1.400       .  A
C527        H531   1.084       .  S
C528        O532   1.372       .  S
O530        H534   0.992       .  S
O532        H533   0.992       .  S
C535        C536   1.408       .  A
C535       C1364   1.413   1_455  A
C536        C537   1.398       .  A
C536        H541   1.083       .  S
C537        C538   1.407       .  A
C537        O542   1.372       .  S
C538       C1242   1.474       .  S
C538       C1363   1.401   1_455  A
C539       C1362   1.402       .  A
C539        C540   1.399       .  A
C539        H543   1.082       .  S
C540       C1359   1.413       .  A
C540        O544   1.371       .  S
O542        H546   0.992       .  S
O544        H545   0.992       .  S
C547       C1372   1.405   1_455  A
C547        C552   1.412       .  A
C548       C1371   1.406       .  A
C548        C549   1.393       .  A
C548        H553   1.083       .  S
C549       C1374   1.407       .  A
C549        O554   1.372       .  S
C550       C1373   1.409   1_455  A
C550        C551   1.405       .  A
C551        C552   1.400       .  A
C551        H555   1.084       .  S
C552        O556   1.372       .  S
O554        H558   0.992       .  S
O556        H557   0.992       .  S
C559        C560   1.405   1_455  A
C559        C564   1.409       .  A
C560       C1385   1.399       .  A
C560       H1389   1.084       .  S
C561       C1384   1.401       .  A
C561       C1386   1.410       .  A
C561        O566   1.371       .  S
C562       C1248   1.483       .  S
C562       C1385   1.413   1_455  A
C562        C563   1.405       .  A
C563        C564   1.398       .  A
C563        H567   1.084       .  S
C564        O568   1.372       .  S
H565       C1384   1.083       .  S
O566        H570   0.992       .  S
O568        H569   0.992       .  S
C571        C572   1.407       .  A
C572        C573   1.402       .  A
C572        H577   1.084       .  S
C573        C574   1.412       .  A
C573        O578   1.372       .  S
C574        C575   1.405   1_565  A
C576        O580   1.372       .  S
O578        H582   0.992       .  S
O580        H581   0.992       .  S
C583        C584   1.401       .  A
C584        C585   1.396       .  A
C584        H589   1.084       .  S
C585        C586   1.411       .  A
C585        O590   1.371       .  S
C587        C588   1.400       .  A
C587        H591   1.084       .  S
C588        O592   1.370       .  S
O590        H594   0.992       .  S
O592        H593   0.992       .  S
C595        C600   1.413   1_565  A
C596        C597   1.397       .  A
C596        H601   1.084       .  S
C597        O602   1.372       .  S
C598        C599   1.404   1_565  A
C599        C600   1.398       .  A
C599        H603   1.084       .  S
C600        O604   1.372       .  S
O602        H606   0.992       .  S
O604        H605   0.992       .  S
C607        C612   1.410       .  A
C608        C609   1.397       .  A
C608        H613   1.084       .  S
C609        O614   1.371       .  S
C610        C611   1.406       .  A
C611        C612   1.399       .  A
C611        H615   1.083       .  S
C612        O616   1.372       .  S
O614        H618   0.992       .  S
O616        H617   0.992       .  S
O619       Zr631   2.442       .  S
O619        C621   1.289       .  A
O620       Zr657   2.412       .  S
C621        C816   1.489       .  S
O622       Zr634   2.444       .  S
O622       C1448   1.289       .  A
O623       Zr658   2.431       .  S
O623        C624   1.288       .  A
C624       O1446   1.285       .  A
C624       C1568   1.486       .  S
O625       Zr634   2.437       .  S
O625        C627   1.287       .  A
C627        C789   1.476       .  S
O628       Zr631   2.440       .  S
O628       C1454   1.288       .  A
O629        C630   1.285       .  A
C630       O1452   1.289       .  A
C630       C1592   1.480       .  S
Zr631       O632   2.436       .  S
Zr631       O633   2.436       .  S
Zr631       O637   2.371       .  S
Zr631       O638   2.370       .  S
Zr631      O1485   2.374   1_455  S
O632        H675   0.990       .  S
O633        H674   0.990       .  S
O633        H678   0.990       .  S
Zr634       O635   2.435       .  S
Zr634       O636   2.435       .  S
Zr634      O1488   2.372   1_455  S
O635        H676   0.990       .  S
O635        H679   0.990       .  S
O636        H669   0.990       .  S
O638      Zr1276   2.377   1_455  S
O638        H665   0.965       .  S
O639       Zr651   2.442       .  S
O639        C641   1.288       .  A
O642       Zr654   2.441       .  S
O642       C1468   1.288       .  A
O643        C644   1.287       .  A
C644       O1466   1.287   1_455  A
C644        C732   1.475       .  S
O645       Zr654   2.443       .  S
O645        C647   1.288       .  A
O646       Zr658   2.423       .  S
O648       Zr651   2.441       .  S
O648       C1474   1.288       .  A
O649       Zr657   2.422       .  S
O649        C650   1.287       .  A
C650       O1472   1.286   1_455  A
C650        C756   1.475       .  S
Zr651       O652   2.435       .  S
Zr651       O653   2.434       .  S
Zr651      O1487   2.366       .  S
O652        H672   0.990       .  S
O652        H677   0.990       .  S
O653        H673   0.990       .  S
Zr654       O655   2.435       .  S
Zr654       O656   2.435       .  S
Zr654       O660   2.373   1_556  S
Zr654       O659   2.371   1_556  S
Zr654      O1486   2.371       .  S
O655        H671   0.990       .  S
O656        H670   0.990       .  S
O656        H680   0.990       .  S
Zr657      O1278   2.378   1_455  S
Zr657       O663   2.386       .  S
Zr658      O1256   2.384   1_556  S
Zr658       O664   2.381       .  S
O659        H667   0.966       .  S
O660      Zr1275   2.378   1_554  S
O661      Zr1455   2.371       .  S
O662      Zr1478   2.372   1_455  S
O662        H666   0.967       .  S
O663      Zr1475   2.369   1_455  S
O663        H668   0.968       .  S
O664      Zr1458   2.369       .  S
C681        C765   1.473       .  S
C681        N682   1.357       .  A
C681        N686   1.355       .  A
N682        C683   1.356       .  A
C683        C753   1.479       .  S
C683        N684   1.357       .  A
N684        C685   1.355       .  A
C685        C720   1.484       .  S
C685        N686   1.357       .  A
C687        C741   1.477       .  S
C687        N688   1.358       .  A
C687        N692   1.353       .  A
N688        C689   1.361       .  A
C689        C729   1.488       .  S
C689        N690   1.361       .  A
N690        C691   1.359       .  A
C691        C717   1.486       .  S
C691        N692   1.354       .  A
C693        C804   1.480       .  S
C693        N694   1.357       .  A
C693        N698   1.359       .  A
N694        C695   1.355       .  A
C695        C705   1.486       .  S
C695        N696   1.358       .  A
N696        C697   1.357       .  A
C697        C813   1.472   1_545  S
C697        N698   1.358       .  A
C699        C780   1.482       .  S
C699        N700   1.359   1_565  A
C699        N704   1.357       .  A
N700        C701   1.359       .  A
C701        C708   1.488       .  S
C701        N702   1.358   1_545  A
N702        C703   1.357       .  A
C703        C792   1.480       .  S
C703        N704   1.357       .  A
C705        C706   1.404       .  A
C705        C710   1.414       .  A
C706        C707   1.397       .  A
C706        H711   1.083       .  S
C707        C708   1.413       .  A
C707        O712   1.371       .  S
C708        C709   1.406       .  A
C709        C710   1.399       .  A
O712        H716   0.992   1_545  S
O714        H715   0.992       .  S
C717        C718   1.405       .  A
C717       C1546   1.414       .  A
C718        C719   1.399       .  A
C718        H723   1.083       .  S
C719        C720   1.413       .  A
C719        O724   1.372       .  S
C720       C1545   1.404       .  A
C721       C1544   1.404       .  A
C721        C722   1.396       .  A
C721        H725   1.083       .  S
C722       C1541   1.413       .  A
C722        O726   1.372       .  S
O724        H728   0.992   1_455  S
O726        H727   0.992       .  S
C729       C1554   1.408   1_455  A
C729        C734   1.414       .  A
C730       C1553   1.409       .  A
C730        C731   1.399       .  A
C730        H735   1.083       .  S
C731       C1556   1.405       .  A
C731        O736   1.372       .  S
C732       C1555   1.408   1_455  A
C732        C733   1.401       .  A
C733        C734   1.399       .  A
C733        H737   1.084       .  S
C734        O738   1.371       .  S
O736        H740   0.992       .  S
O738        H739   0.992   1_455  S
C741        C742   1.404       .  A
C741       C1570   1.406   1_455  A
C742        C743   1.398       .  A
C742        H747   1.084       .  S
C743        C744   1.413       .  A
C743        O748   1.372       .  S
C744       C1448   1.487       .  S
C744       C1569   1.409   1_455  A
C745       C1568   1.406       .  A
C745        C746   1.402       .  A
C745        H749   1.082       .  S
C746       C1565   1.409       .  A
C746        O750   1.371       .  S
O748        H752   0.992       .  S
O750        H751   0.992       .  S
C753       C1578   1.404   1_455  A
C753        C758   1.412       .  A
C754       C1577   1.405       .  A
C754        C755   1.397       .  A
C754        H759   1.083       .  S
C755       C1580   1.410       .  A
C755        O760   1.372       .  S
C756       C1579   1.410   1_455  A
C756        C757   1.404       .  A
C757        C758   1.400       .  A
C757        H761   1.084       .  S
C758        O762   1.372       .  S
O760        H764   0.992       .  S
O762        H763   0.992       .  S
C765        C766   1.401   1_455  A
C765        C770   1.410       .  A
C766       C1591   1.394       .  A
C766       H1595   1.084       .  S
C767       C1590   1.399       .  A
C767       C1592   1.411       .  A
C767        O772   1.371       .  S
C768       C1454   1.478       .  S
C768       C1591   1.413   1_455  A
C768        C769   1.405       .  A
C769        C770   1.398       .  A
C769        H773   1.084       .  S
C770        O774   1.372       .  S
H771       C1590   1.084       .  S
O772        H776   0.992       .  S
O774        H775   0.992       .  S
C777        C778   1.405       .  A
C778        C779   1.399       .  A
C778        H783   1.084       .  S
C779        C780   1.412       .  A
C779        O784   1.372       .  S
C780        C781   1.404   1_565  A
C782        O786   1.372       .  S
O784        H788   0.992       .  S
O786        H787   0.992       .  S
C789        C790   1.402       .  A
C790        C791   1.399       .  A
C790        H795   1.084       .  S
C791        C792   1.411       .  A
C791        O796   1.372       .  S
C793        C794   1.400       .  A
C793        H797   1.083       .  S
C794        O798   1.371       .  S
O796        H800   0.992       .  S
O798        H799   0.992       .  S
C801        C806   1.410   1_565  A
C802        C803   1.401       .  A
C802        H807   1.084       .  S
C803        O808   1.371       .  S
C804        C805   1.405       .  A
C805        C806   1.396       .  A
C805        H809   1.083       .  S
C806        O810   1.372       .  S
O808        H812   0.992       .  S
O810        H811   0.992       .  S
C813        C818   1.406       .  A
C814        C815   1.402       .  A
C814        H819   1.084       .  S
C815        O820   1.371       .  S
C816        C817   1.409       .  A
C817        C818   1.399       .  A
C817        H821   1.083       .  S
C818        O822   1.372       .  S
O820        H824   0.992       .  S
O822        H823   0.992       .  S
O825       Zr837   2.436       .  S
O825        C827   1.288       .  A
O826       Zr863   2.411   1_554  S
O826       C1239   1.284   1_545  A
C827       O1238   1.285       .  A
C827       C1022   1.485       .  S
O828       Zr840   2.439       .  S
O829       Zr864   2.422       .  S
O829        C830   1.287   1_655  A
O831       Zr840   2.427       .  S
O831        C833   1.286       .  A
O832      Zr1069   2.410       .  S
O832       C1245   1.284   1_545  A
C833       O1244   1.286       .  A
C833        C995   1.477       .  S
O834       Zr837   2.432       .  S
O835      Zr1070   2.410       .  S
O835        C836   1.284   1_655  A
Zr837       O838   2.433       .  S
Zr837       O839   2.435       .  S
Zr837       O843   2.371   1_554  S
Zr837       O844   2.373       .  S
Zr837      O1281   2.366       .  S
O838        H881   0.990       .  S
O839        H880   0.990       .  S
O839        H884   0.990       .  S
Zr840       O841   2.434       .  S
Zr840       O842   2.436       .  S
Zr840      O1050   2.366       .  S
Zr840      O1049   2.374       .  S
Zr840      O1280   2.369       .  S
O841        H882   0.990       .  S
O841        H885   0.990       .  S
O842        H875   0.990       .  S
O843      Zr1046   2.372       .  S
O843      Zr1275   2.375       .  S
O844      Zr1046   2.369   1_554  S
O844        H871   0.965       .  S
O845       Zr857   2.443       .  S
O845        C847   1.288   1_545  A
O846      Zr1070   2.405       .  S
O846       C1259   1.284       .  A
C847       O1258   1.287       .  A
C847       C1419   1.485       .  S
O848       Zr860   2.448       .  S
O849      Zr1069   2.420       .  S
O849        C850   1.286       .  A
C850        C938   1.470       .  S
O851       Zr860   2.449       .  S
O851        C853   1.289   1_545  A
O852       Zr864   2.419       .  S
O852       C1265   1.286       .  A
C853       O1264   1.283       .  A
C853       C1395   1.480       .  S
O854       Zr857   2.443       .  S
O855       Zr863   2.420   1_554  S
O855        C856   1.286       .  A
C856        C962   1.476       .  S
Zr857       O858   2.436       .  S
Zr857       O859   2.434       .  S
Zr857      O1071   2.370   1_554  S
Zr857      O1072   2.373   1_554  S
Zr857      O1279   2.370   1_545  S
O858        H878   0.990       .  S
O858        H883   0.990       .  S
O859        H879   0.990       .  S
Zr860       O861   2.435       .  S
Zr860       O862   2.436       .  S
Zr860       O866   2.376       .  S
Zr860       O865   2.374       .  S
Zr860      O1282   2.367   1_545  S
O861        H877   0.990       .  S
O862        H876   0.990       .  S
O862        H886   0.990       .  S
Zr863      O1038   2.418       .  S
Zr863      O1055   2.419       .  S
Zr863      O1255   2.380   1_546  S
Zr863      O1074   2.379       .  S
Zr863       O869   2.380   1_556  S
Zr864      O1041   2.411       .  S
Zr864      O1052   2.424       .  S
Zr864      O1277   2.380       .  S
Zr864      O1073   2.382       .  S
Zr864       O870   2.377       .  S
O865      Zr1063   2.370       .  S
O865      Zr1276   2.379   1_545  S
O865        H873   0.966       .  S
O866      Zr1063   2.370       .  S
O867      Zr1269   2.374       .  S
O867      Zr1070   2.383       .  S
O868      Zr1252   2.367   1_545  S
O868      Zr1069   2.385       .  S
O868        H872   0.967       .  S
O869      Zr1249   2.363   1_545  S
O869        H874   0.967       .  S
O870      Zr1272   2.369       .  S
C887        C971   1.482       .  S
C887        N888   1.358       .  A
C887        N892   1.356       .  A
N888        C889   1.357       .  A
C889        C959   1.474       .  S
C889        N890   1.356       .  A
N890        C891   1.355       .  A
C891        C926   1.484       .  S
C891        N892   1.357       .  A
C893        C947   1.478       .  S
C893        N894   1.359       .  A
C893        N898   1.355       .  A
N894        C895   1.360       .  A
C895        C935   1.489       .  S
C895        N896   1.359       .  A
N896        C897   1.357       .  A
C897        C923   1.485       .  S
C897        N898   1.355       .  A
C899       C1010   1.477       .  S
C899        N900   1.356       .  A
C899        N904   1.356       .  A
N900        C901   1.355       .  A
C901        C911   1.478       .  S
C901        N902   1.358       .  A
N902        C903   1.356       .  A
C903       C1019   1.468       .  S
C903        N904   1.355       .  A
C905        C986   1.475       .  S
C905        N906   1.357       .  A
C905        N910   1.357       .  A
N906        C907   1.357       .  A
C907        C914   1.480       .  S
C907        N908   1.357       .  A
N908        C909   1.357       .  A
C909        C998   1.480       .  S
C909        N910   1.357       .  A
C911        C912   1.403       .  A
C911        C916   1.412       .  A
C912        C913   1.395       .  A
C912        H917   1.083       .  S
C913        C914   1.411       .  A
C913        O918   1.370       .  S
C914        C915   1.405       .  A
C915        C916   1.397       .  A
C915       H1331   1.084       .  S
C916       O1332   1.372       .  S
O918        H922   0.992       .  S
H919       C1327   1.083   1_545  S
O920       C1328   1.371   1_545  S
O920        H921   0.992       .  S
C923        C924   1.406       .  A
C924        C925   1.399       .  A
C924        H929   1.083       .  S
C925        C926   1.413       .  A
C925        O930   1.372       .  S
C927        C928   1.399       .  A
C927        H931   1.084       .  S
C928        O932   1.372       .  S
O930        H934   0.992       .  S
O932        H933   0.992       .  S
C935        C940   1.415       .  A
C936        C937   1.401       .  A
C936        H941   1.083       .  S
C937        O942   1.372       .  S
C938        C939   1.400       .  A
C939        C940   1.399       .  A
C939        H943   1.084       .  S
C940        O944   1.371       .  S
O942        H946   0.992       .  S
O944        H945   0.992       .  S
C947        C948   1.404       .  A
C948        C949   1.398       .  A
C948        H953   1.084       .  S
C949        C950   1.413       .  A
C949        O954   1.372       .  S
C951        C952   1.402       .  A
C951        H955   1.083       .  S
C952        O956   1.372       .  S
O954        H958   0.992       .  S
O956        H957   0.992       .  S
C959        C964   1.410       .  A
C960        C961   1.397       .  A
C960        H965   1.083       .  S
C961        O966   1.372       .  S
C962        C963   1.404       .  A
C963        C964   1.398       .  A
C963        H967   1.084       .  S
C964        O968   1.372       .  S
O966        H970   0.992       .  S
O968        H969   0.992       .  S
C971        C972   1.406       .  A
C971        C976   1.413       .  A
C973        O978   1.369       .  S
C974        C975   1.402       .  A
C975        C976   1.398       .  A
C975        H979   1.084       .  S
C976        O980   1.372       .  S
O978        H982   0.992       .  S
O980        H981   0.992       .  S
C983       C1265   1.482       .  S
C983        C984   1.406       .  A
C983       C1400   1.414       .  A
C984        C985   1.397       .  A
C984        H989   1.084       .  S
C985        C986   1.408       .  A
C985        O990   1.372       .  S
C986        C987   1.403       .  A
C987       C1400   1.397       .  A
C987       H1403   1.084       .  S
C988       C1395   1.409       .  A
C988       C1399   1.396       .  A
C988        O992   1.372   1_565  S
O990        H994   0.992       .  S
H991       C1399   1.083   1_545  S
O992        H993   0.992       .  S
C995        C996   1.403       .  A
C995       C1412   1.409       .  A
C996        C997   1.395       .  A
C996       H1001   1.084       .  S
C997        C998   1.410       .  A
C997       O1002   1.371       .  S
C998       C1411   1.407       .  A
C999       C1410   1.405       .  A
C999       C1000   1.399       .  A
C999       H1003   1.084   1_565  S
C1000      C1407   1.410       .  A
C1000      O1004   1.371   1_565  S
O1002      H1006   0.992       .  S
O1004      H1005   0.992   1_545  S
C1007      C1259   1.470       .  S
C1007      C1420   1.402       .  A
C1007      C1012   1.408       .  A
C1008      C1419   1.406       .  A
C1008      C1009   1.402       .  A
C1008      H1013   1.084       .  S
C1009      C1422   1.412       .  A
C1009      O1014   1.372       .  S
C1010      C1421   1.412       .  A
C1010      C1011   1.406       .  A
C1011      C1012   1.394       .  A
C1011      H1015   1.083       .  S
C1012      O1016   1.372       .  S
O1014      H1018   0.992       .  S
O1016      H1017   0.992       .  S
C1019      C1432   1.400       .  A
C1019      C1024   1.405       .  A
C1020      C1431   1.400   1_545  A
C1020      C1021   1.398       .  A
C1020      H1025   1.084       .  S
C1021      C1434   1.415   1_545  A
C1021      O1026   1.370       .  S
C1022      C1433   1.415       .  A
C1022      C1023   1.408       .  A
C1023      C1024   1.397       .  A
C1023      H1027   1.083       .  S
C1024      O1028   1.372       .  S
O1026      H1030   0.992       .  S
O1028      H1029   0.992       .  S
O1031     Zr1043   2.447       .  S
O1031      C1033   1.289       .  A
O1032     Zr1069   2.425       .  S
O1032      C1445   1.287   1_545  A
C1033      O1444   1.284       .  A
C1033      C1228   1.488       .  S
O1034     Zr1046   2.443       .  S
O1035     Zr1070   2.419   1_556  S
O1035      C1036   1.286   1_655  A
O1037     Zr1046   2.441       .  S
O1037      C1039   1.288       .  A
O1038      C1451   1.286   1_545  A
C1039      O1450   1.283       .  A
C1039      C1201   1.471       .  S
O1040     Zr1043   2.430       .  S
O1041      C1042   1.284   1_655  A
Zr1043     O1044   2.436       .  S
Zr1043     O1045   2.435       .  S
Zr1043     O1049   2.366       .  S
Zr1043     O1050   2.372       .  S
Zr1043     O1487   2.366       .  S
O1044      H1087   0.990       .  S
O1045      H1086   0.990       .  S
O1045      H1090   0.990       .  S
Zr1046     O1047   2.435       .  S
Zr1046     O1048   2.435       .  S
Zr1046     O1486   2.369       .  S
O1047      H1088   0.990       .  S
O1047      H1091   0.990       .  S
O1048      H1081   0.990       .  S
O1049     Zr1481   2.379       .  S
O1050      H1077   0.965       .  S
O1051     Zr1063   2.443       .  S
O1051      C1053   1.289   1_545  A
O1052      C1465   1.287       .  A
C1053      O1464   1.285       .  A
C1053      C1625   1.480       .  S
O1054     Zr1066   2.431       .  S
O1055      C1056   1.286       .  A
C1056      C1144   1.474       .  S
O1057     Zr1066   2.430       .  S
O1057      C1059   1.285   1_545  A
O1058     Zr1070   2.419   1_556  S
O1058      C1471   1.286       .  A
C1059      O1470   1.285       .  A
C1059      C1601   1.481       .  S
O1060     Zr1063   2.444       .  S
O1061     Zr1069   2.417       .  S
O1061      C1062   1.285       .  A
C1062      C1168   1.483       .  S
Zr1063     O1064   2.434       .  S
Zr1063     O1065   2.434       .  S
Zr1063     O1485   2.373   1_545  S
O1064      H1084   0.990       .  S
O1064      H1089   0.990       .  S
O1065      H1085   0.990       .  S
Zr1066     O1067   2.435       .  S
Zr1066     O1068   2.436       .  S
Zr1066     O1072   2.369       .  S
Zr1066     O1071   2.372       .  S
Zr1066     O1488   2.372   1_545  S
O1067      H1083   0.990       .  S
O1068      H1082   0.990       .  S
O1068      H1092   0.990       .  S
Zr1069     O1461   2.379   1_545  S
Zr1069     O1075   2.377       .  S
Zr1070     O1483   2.380   1_554  S
Zr1070     O1076   2.370   1_554  S
O1071     Zr1482   2.381   1_545  S
O1071      H1079   0.966       .  S
O1073     Zr1475   2.369       .  S
O1074     Zr1458   2.366   1_545  S
O1074      H1078   0.967       .  S
O1075     Zr1455   2.372   1_545  S
O1075      H1080   0.967       .  S
O1076     Zr1478   2.364       .  S
C1093      C1177   1.485       .  S
C1093      N1094   1.360       .  A
C1093      N1098   1.356       .  A
N1094      C1095   1.358       .  A
C1095      C1165   1.484       .  S
C1095      N1096   1.359       .  A
N1096      C1097   1.357       .  A
C1097      C1132   1.488       .  S
C1097      N1098   1.356       .  A
C1099      C1153   1.486       .  S
C1099      N1100   1.358       .  A
C1099      N1104   1.357       .  A
N1100      C1101   1.361       .  A
C1101      C1141   1.490       .  S
C1101      N1102   1.361       .  A
N1102      C1103   1.360       .  A
C1103      C1129   1.490       .  S
C1103      N1104   1.356       .  A
C1105      C1216   1.482       .  S
C1105      N1106   1.357       .  A
C1105      N1110   1.361       .  A
N1106      C1107   1.355       .  A
C1107      C1117   1.477       .  S
C1107      N1108   1.356       .  A
N1108      C1109   1.356       .  A
C1109      C1225   1.475       .  S
C1109      N1110   1.360       .  A
C1111      C1192   1.485       .  S
C1111      N1112   1.360       .  A
C1111      N1116   1.360       .  A
N1112      C1113   1.358       .  A
C1113      C1120   1.478       .  S
C1113      N1114   1.354       .  A
N1114      C1115   1.354       .  A
C1115      C1204   1.484       .  S
C1115      N1116   1.360       .  A
C1117      C1118   1.402       .  A
C1117      C1122   1.411       .  A
C1118      C1119   1.396       .  A
C1118      H1123   1.084       .  S
C1119      C1120   1.411       .  A
C1119      O1124   1.371       .  S
C1120      C1121   1.403       .  A
C1121      C1122   1.398       .  A
C1121      H1537   1.084       .  S
C1122      O1538   1.372       .  S
O1124      H1128   0.992       .  S
H1125      C1533   1.083       .  S
O1126      C1534   1.372       .  S
O1126      H1127   0.992   1_565  S
C1129      C1130   1.406       .  A
C1130      C1131   1.400       .  A
C1130      H1135   1.083       .  S
C1131      C1132   1.412       .  A
C1131      O1136   1.371       .  S
C1133      C1134   1.396       .  A
C1133      H1137   1.083       .  S
C1134      O1138   1.372       .  S
O1136      H1140   0.992       .  S
O1138      H1139   0.992       .  S
C1141      C1146   1.415       .  A
C1142      C1143   1.398       .  A
C1142      H1147   1.083       .  S
C1143      O1148   1.372       .  S
C1144      C1145   1.400       .  A
C1145      C1146   1.399       .  A
C1145      H1149   1.084       .  S
C1146      O1150   1.371       .  S
O1148      H1152   0.992       .  S
O1150      H1151   0.992       .  S
C1153      C1154   1.406       .  A
C1154      C1155   1.398       .  A
C1154      H1159   1.083       .  S
C1155      C1156   1.408       .  A
C1155      O1160   1.372       .  S
C1157      C1158   1.396       .  A
C1157      H1161   1.079       .  S
C1158      O1162   1.371       .  S
O1160      H1164   0.992       .  S
O1162      H1163   0.992   1_655  S
C1165      C1170   1.413       .  A
C1166      C1167   1.396       .  A
C1166      H1171   1.083       .  S
C1167      O1172   1.372       .  S
C1168      C1169   1.407       .  A
C1169      C1170   1.404       .  A
C1169      H1173   1.084       .  S
C1170      O1174   1.372       .  S
O1172      H1176   0.992       .  S
O1174      H1175   0.992       .  S
C1177      C1178   1.407       .  A
C1177      C1182   1.417       .  A
C1179      O1184   1.372       .  S
C1180      C1181   1.399       .  A
C1181      C1182   1.397       .  A
C1181      H1185   1.084       .  S
C1182      O1186   1.372       .  S
O1184      H1188   0.992       .  S
O1186      H1187   0.992       .  S
C1189      C1471   1.485       .  S
C1189      C1190   1.406       .  A
C1189      C1606   1.411       .  A
C1190      C1191   1.402       .  A
C1190      H1195   1.084       .  S
C1191      C1192   1.412       .  A
C1191      O1196   1.372       .  S
C1192      C1193   1.405       .  A
C1193      C1606   1.398       .  A
C1193      H1609   1.083       .  S
C1194      C1601   1.413   1_545  A
C1194      C1605   1.394       .  A
C1194      O1198   1.372       .  S
O1196      H1200   0.992       .  S
H1197      C1605   1.084       .  S
O1198      H1199   0.992       .  S
C1201      C1202   1.398       .  A
C1201      C1618   1.407       .  A
C1202      C1203   1.396       .  A
C1202      H1207   1.084       .  S
C1203      C1204   1.416       .  A
C1203      O1208   1.371       .  S
C1204      C1617   1.405       .  A
C1205      C1616   1.405       .  A
C1205      C1206   1.394       .  A
C1205      H1209   1.083   1_565  S
C1206      C1613   1.404       .  A
C1206      O1210   1.369   1_565  S
O1208      H1212   0.992       .  S
O1210      H1211   0.992   1_545  S
C1213      C1465   1.480       .  S
C1213      C1626   1.405       .  A
C1213      C1218   1.411       .  A
C1214      C1625   1.406       .  A
C1214      C1215   1.400       .  A
C1214      H1219   1.084       .  S
C1215      C1628   1.411       .  A
C1215      O1220   1.372       .  S
C1216      C1627   1.411       .  A
C1216      C1217   1.405       .  A
C1217      C1218   1.397       .  A
C1217      H1221   1.084       .  S
C1218      O1222   1.372       .  S
O1220      H1224   0.992       .  S
O1222      H1223   0.992       .  S
C1225      C1638   1.401       .  A
C1225      C1230   1.407       .  A
C1226      C1637   1.398   1_545  A
C1226      C1227   1.397       .  A
C1226      H1231   1.084       .  S
C1227      C1640   1.415   1_545  A
C1227      O1232   1.371       .  S
C1228      C1639   1.416       .  A
C1228      C1229   1.407       .  A
C1229      C1230   1.397       .  A
C1229      H1233   1.083       .  S
C1230      O1234   1.372       .  S
O1232      H1236   0.992       .  S
O1234      H1235   0.992       .  S
O1237     Zr1249   2.451       .  S
O1237      C1239   1.290       .  A
O1238     Zr1275   2.415   1_554  S
C1239      C1434   1.487       .  S
O1240     Zr1252   2.434       .  S
O1241     Zr1276   2.415       .  S
O1241      C1242   1.285   1_655  A
O1243     Zr1252   2.436       .  S
O1243      C1245   1.288       .  A
O1244     Zr1481   2.424       .  S
C1245      C1407   1.476       .  S
O1246     Zr1249   2.440       .  S
O1247     Zr1482   2.414   1_554  S
O1247      C1248   1.285   1_655  A
Zr1249     O1250   2.435       .  S
Zr1249     O1251   2.438       .  S
Zr1249     O1255   2.372       .  S
Zr1249     O1256   2.375       .  S
O1250      H1293   0.990       .  S
O1251      H1292   0.990       .  S
O1251      H1296   0.990       .  S
Zr1252     O1253   2.434       .  S
Zr1252     O1254   2.434       .  S
Zr1252     O1462   2.366       .  S
Zr1252     O1461   2.369       .  S
O1253      H1294   0.990       .  S
O1253      H1297   0.990       .  S
O1254      H1287   0.990       .  S
O1255     Zr1458   2.371   1_554  S
O1256     Zr1458   2.359   1_554  S
O1256      H1283   0.965       .  S
O1257     Zr1269   2.430       .  S
O1257      C1259   1.286       .  A
O1258     Zr1482   2.426   1_554  S
O1260     Zr1272   2.436       .  S
O1261     Zr1481   2.412       .  S
O1261      C1262   1.285       .  A
C1262      C1350   1.478       .  S
O1263     Zr1272   2.431       .  S
O1263      C1265   1.286       .  A
O1264     Zr1276   2.404       .  S
O1266     Zr1269   2.441       .  S
O1267     Zr1275   2.407   1_554  S
O1267      C1268   1.283       .  A
C1268      C1374   1.475       .  S
Zr1269     O1270   2.435       .  S
Zr1269     O1271   2.434       .  S
Zr1269     O1483   2.371   1_554  S
Zr1269     O1484   2.368   1_554  S
O1270      H1290   0.990       .  S
O1270      H1295   0.990       .  S
O1271      H1291   0.990       .  S
Zr1272     O1273   2.435       .  S
Zr1272     O1274   2.435       .  S
Zr1272     O1278   2.372       .  S
Zr1272     O1277   2.373       .  S
O1273      H1289   0.990       .  S
O1274      H1288   0.990       .  S
O1274      H1298   0.990       .  S
Zr1275     O1450   2.409       .  S
Zr1275     O1467   2.416       .  S
Zr1275     O1486   2.379       .  S
Zr1275     O1281   2.377   1_556  S
Zr1276     O1453   2.400       .  S
Zr1276     O1464   2.413       .  S
Zr1276     O1485   2.376       .  S
Zr1276     O1282   2.375       .  S
O1277     Zr1475   2.368       .  S
O1277      H1285   0.966       .  S
O1278     Zr1475   2.374       .  S
O1279     Zr1482   2.380   1_554  S
O1280     Zr1481   2.383       .  S
O1280      H1284   0.967       .  S
O1281      H1286   0.968       .  S
C1299      C1383   1.483       .  S
C1299      N1300   1.360       .  A
C1299      N1304   1.357       .  A
N1300      C1301   1.360       .  A
C1301      C1371   1.483       .  S
C1301      N1302   1.358       .  A
N1302      C1303   1.354       .  A
C1303      C1338   1.489       .  S
C1303      N1304   1.356       .  A
C1305      C1359   1.486       .  S
C1305      N1306   1.358       .  A
C1305      N1310   1.357       .  A
N1306      C1307   1.359       .  A
C1307      C1347   1.485       .  S
C1307      N1308   1.359       .  A
N1308      C1309   1.359       .  A
C1309      C1335   1.489       .  S
C1309      N1310   1.357       .  A
C1311      C1422   1.484       .  S
C1311      N1312   1.360       .  A
C1311      N1316   1.360       .  A
N1312      C1313   1.358       .  A
C1313      C1323   1.481       .  S
C1313      N1314   1.356       .  A
N1314      C1315   1.354       .  A
C1315      C1431   1.477       .  S
C1315      N1316   1.360       .  A
C1317      C1398   1.479       .  S
C1317      N1318   1.356       .  A
C1317      N1322   1.358       .  A
N1318      C1319   1.355       .  A
C1319      C1326   1.481       .  S
C1319      N1320   1.357       .  A
N1320      C1321   1.358       .  A
C1321      C1410   1.478       .  S
C1321      N1322   1.359       .  A
C1323      C1324   1.406       .  A
C1323      C1328   1.410       .  A
C1324      C1325   1.396       .  A
C1324      H1329   1.083       .  S
C1325      C1326   1.410       .  A
C1325      O1330   1.371       .  S
C1326      C1327   1.406       .  A
C1327      C1328   1.398       .  A
O1330      H1334   0.992       .  S
O1332      H1333   0.992       .  S
C1335      C1336   1.406       .  A
C1336      C1337   1.400       .  A
C1336      H1341   1.083       .  S
C1337      C1338   1.414       .  A
C1337      O1342   1.371       .  S
C1339      C1340   1.399       .  A
C1339      H1343   1.083       .  S
C1340      O1344   1.372       .  S
O1342      H1346   0.992       .  S
O1344      H1345   0.992       .  S
C1347      C1352   1.412       .  A
C1348      C1349   1.400       .  A
C1348      H1353   1.083       .  S
C1349      O1354   1.372       .  S
C1350      C1351   1.404       .  A
C1351      C1352   1.400       .  A
C1351      H1355   1.084       .  S
C1352      O1356   1.372       .  S
O1354      H1358   0.992       .  S
O1356      H1357   0.992       .  S
C1359      C1360   1.408       .  A
C1360      C1361   1.399       .  A
C1360      H1365   1.083       .  S
C1361      C1362   1.408       .  A
C1361      O1366   1.372       .  S
C1363      C1364   1.398       .  A
C1363      H1367   1.083       .  S
C1364      O1368   1.371       .  S
O1366      H1370   0.992       .  S
O1368      H1369   0.992   1_655  S
C1371      C1376   1.413       .  A
C1372      C1373   1.396       .  A
C1372      H1377   1.083       .  S
C1373      O1378   1.372       .  S
C1374      C1375   1.405       .  A
C1375      C1376   1.402       .  A
C1375      H1379   1.084       .  S
C1376      O1380   1.372       .  S
O1378      H1382   0.992   1_655  S
O1380      H1381   0.992       .  S
C1383      C1384   1.406       .  A
C1383      C1388   1.413       .  A
C1385      O1390   1.372       .  S
C1386      C1387   1.401       .  A
C1387      C1388   1.396       .  A
C1387      H1391   1.084       .  S
C1388      O1392   1.371       .  S
O1390      H1394   0.992       .  S
O1392      H1393   0.992       .  S
C1395      C1396   1.407       .  A
C1396      C1397   1.400       .  A
C1396      H1401   1.084       .  S
C1397      C1398   1.410       .  A
C1397      O1402   1.372       .  S
C1398      C1399   1.405       .  A
C1400      O1404   1.372       .  S
O1402      H1406   0.992       .  S
O1404      H1405   0.992       .  S
C1407      C1408   1.403       .  A
C1408      C1409   1.395       .  A
C1408      H1413   1.084       .  S
C1409      C1410   1.410       .  A
C1409      O1414   1.371       .  S
C1411      C1412   1.400       .  A
C1411      H1415   1.083       .  S
C1412      O1416   1.371       .  S
O1414      H1418   0.992       .  S
O1416      H1417   0.992       .  S
C1419      C1424   1.412   1_565  A
C1420      C1421   1.395       .  A
C1420      H1425   1.084       .  S
C1421      O1426   1.372       .  S
C1422      C1423   1.404   1_565  A
C1423      C1424   1.399       .  A
C1423      H1427   1.084       .  S
C1424      O1428   1.372       .  S
O1426      H1430   0.992       .  S
O1428      H1429   0.992   1_545  S
C1431      C1436   1.411       .  A
C1432      C1433   1.397       .  A
C1432      H1437   1.084       .  S
C1433      O1438   1.371       .  S
C1434      C1435   1.406       .  A
C1435      C1436   1.399       .  A
C1435      H1439   1.083       .  S
C1436      O1440   1.372       .  S
O1438      H1442   0.992       .  S
O1440      H1441   0.991       .  S
O1443     Zr1455   2.434       .  S
O1443      C1445   1.287       .  A
O1444     Zr1481   2.413       .  S
C1445      C1640   1.489       .  S
O1446     Zr1458   2.429       .  S
O1447     Zr1482   2.418       .  S
O1447      C1448   1.286   1_655  A
O1449     Zr1458   2.420       .  S
O1449      C1451   1.284       .  A
C1451      C1613   1.468       .  S
O1452     Zr1455   2.441       .  S
O1453      C1454   1.282   1_655  A
Zr1455     O1456   2.434       .  S
Zr1455     O1457   2.435       .  S
Zr1455     O1461   2.374       .  S
Zr1455     O1462   2.370       .  S
O1456      H1499   0.990       .  S
O1457      H1498   0.990       .  S
O1457      H1502   0.990       .  S
Zr1458     O1459   2.434       .  S
Zr1458     O1460   2.435       .  S
O1459      H1500   0.990       .  S
O1459      H1503   0.990       .  S
O1460      H1493   0.990       .  S
O1462      H1489   0.965       .  S
O1463     Zr1475   2.437       .  S
O1463      C1465   1.287       .  A
O1466     Zr1478   2.433       .  S
O1467      C1468   1.285       .  A
C1468      C1556   1.471       .  S
O1469     Zr1478   2.446       .  S
O1469      C1471   1.289       .  A
O1470     Zr1482   2.414       .  S
O1472     Zr1475   2.429       .  S
O1473     Zr1481   2.418       .  S
O1473      C1474   1.286       .  A
C1474      C1580   1.479       .  S
Zr1475     O1476   2.436       .  S
Zr1475     O1477   2.434       .  S
O1476      H1496   0.990       .  S
O1476      H1501   0.990       .  S
O1477      H1497   0.990       .  S
Zr1478     O1479   2.434       .  S
Zr1478     O1480   2.436       .  S
Zr1478     O1484   2.377       .  S
Zr1478     O1483   2.369       .  S
O1479      H1495   0.990       .  S
O1480      H1494   0.990       .  S
O1480      H1504   0.990       .  S
Zr1481     O1487   2.381       .  S
Zr1482     O1488   2.380       .  S
O1483      H1491   0.966       .  S
O1486      H1490   0.967       .  S
O1487      H1492   0.968       .  S
C1505      C1589   1.483       .  S
C1505      N1506   1.358       .  A
C1505      N1510   1.356       .  A
N1506      C1507   1.358       .  A
C1507      C1577   1.484       .  S
C1507      N1508   1.361       .  A
N1508      C1509   1.359       .  A
C1509      C1544   1.485       .  S
C1509      N1510   1.357       .  A
C1511      C1565   1.480       .  S
C1511      N1512   1.358       .  A
C1511      N1516   1.356       .  A
N1512      C1513   1.360       .  A
C1513      C1553   1.489       .  S
C1513      N1514   1.362       .  A
N1514      C1515   1.359       .  A
C1515      C1541   1.487       .  S
C1515      N1516   1.356       .  A
C1517      C1628   1.481       .  S
C1517      N1518   1.355       .  A
C1517      N1522   1.358       .  A
N1518      C1519   1.355       .  A
C1519      C1529   1.482       .  S
C1519      N1520   1.358       .  A
N1520      C1521   1.356       .  A
C1521      C1637   1.469       .  S
C1521      N1522   1.359       .  A
C1523      C1604   1.472       .  S
C1523      N1524   1.354       .  A
C1523      N1528   1.354       .  A
N1524      C1525   1.355       .  A
C1525      C1532   1.481       .  S
C1525      N1526   1.356       .  A
N1526      C1527   1.357       .  A
C1527      C1616   1.475       .  S
C1527      N1528   1.357       .  A
C1529      C1530   1.405       .  A
C1529      C1534   1.413       .  A
C1530      C1531   1.397       .  A
C1530      H1535   1.083   1_565  S
C1531      C1532   1.411       .  A
C1531      O1536   1.371   1_565  S
C1532      C1533   1.405       .  A
C1533      C1534   1.394       .  A
O1536      H1540   0.992   1_545  S
O1538      H1539   0.992       .  S
C1541      C1542   1.407       .  A
C1542      C1543   1.403       .  A
C1542      H1547   1.083       .  S
C1543      C1544   1.412       .  A
C1543      O1548   1.372       .  S
C1545      C1546   1.395       .  A
C1545      H1549   1.083   1_455  S
C1546      O1550   1.372   1_455  S
O1548      H1552   0.992       .  S
O1550      H1551   0.992       .  S
C1553      C1558   1.416       .  A
C1554      C1555   1.400       .  A
C1554      H1559   1.083       .  S
C1555      O1560   1.372       .  S
C1556      C1557   1.400       .  A
C1557      C1558   1.400       .  A
C1557      H1561   1.084       .  S
C1558      O1562   1.371       .  S
O1560      H1564   0.992       .  S
O1562      H1563   0.992       .  S
C1565      C1566   1.403       .  A
C1566      C1567   1.398       .  A
C1566      H1571   1.084       .  S
C1567      C1568   1.414       .  A
C1567      O1572   1.372       .  S
C1569      C1570   1.400       .  A
C1569      H1573   1.083       .  S
C1570      O1574   1.372       .  S
O1572      H1576   0.992       .  S
O1574      H1575   0.992       .  S
C1577      C1582   1.414       .  A
C1578      C1579   1.394       .  A
C1578      H1583   1.083       .  S
C1579      O1584   1.372       .  S
C1580      C1581   1.404       .  A
C1581      C1582   1.401       .  A
C1581      H1585   1.084       .  S
C1582      O1586   1.372       .  S
O1584      H1588   0.992       .  S
O1586      H1587   0.992       .  S
C1589      C1590   1.405       .  A
C1589      C1594   1.412       .  A
C1591      O1596   1.372       .  S
C1592      C1593   1.403       .  A
C1593      C1594   1.398       .  A
C1593      H1597   1.084       .  S
C1594      O1598   1.372       .  S
O1596      H1600   0.992       .  S
O1598      H1599   0.992       .  S
C1601      C1602   1.407       .  A
C1602      C1603   1.397       .  A
C1602      H1607   1.083       .  S
C1603      C1604   1.408       .  A
C1603      O1608   1.372       .  S
C1604      C1605   1.402   1_565  A
C1606      O1610   1.372       .  S
O1608      H1612   0.992       .  S
O1610      H1611   0.992       .  S
C1613      C1614   1.402       .  A
C1614      C1615   1.396       .  A
C1614      H1619   1.084       .  S
C1615      C1616   1.411       .  A
C1615      O1620   1.371       .  S
C1617      C1618   1.399       .  A
C1617      H1621   1.083       .  S
C1618      O1622   1.370       .  S
O1620      H1624   0.992       .  S
O1622      H1623   0.992       .  S
C1625      C1630   1.410   1_565  A
C1626      C1627   1.400       .  A
C1626      H1631   1.084       .  S
C1627      O1632   1.371       .  S
C1628      C1629   1.406       .  A
C1629      C1630   1.396   1_565  A
C1629      H1633   1.083   1_565  S
C1630      O1634   1.372       .  S
O1632      H1636   0.992       .  S
O1634      H1635   0.992   1_545  S
C1637      C1642   1.405       .  A
C1638      C1639   1.401       .  A
C1638      H1643   1.084       .  S
C1639      O1644   1.371       .  S
C1640      C1641   1.411       .  A
C1641      C1642   1.399       .  A
C1641      H1645   1.083       .  S
C1642      O1646   1.372       .  S
O1644      H1648   0.992       .  S
O1646      H1647   0.992       .  S
