geometry optimzed in LAMMPS
_audit_creation_date              2020-11-30 
_audit_creation_method            'lammps2cif' 
_symmetry_space_group_name_H-M    'P1' 
_symmetry_Int_Tables_number       1 
_symmetry_cell_setting            triclinic 
loop_ 
_symmetry_equiv_pos_as_xyz 
  x,y,z 
_cell_length_a                    44.33125131716071 
_cell_length_b                    44.301716565944304 
_cell_length_c                    94.27439968892438 
_cell_angle_alpha                 90.59160634854645 
_cell_angle_beta                  89.74437752070078 
_cell_angle_gamma                 120.46416222672717 
loop_ 
_atom_site_label 
_atom_site_type_symbol 
_atom_site_fract_x 
_atom_site_fract_y 
_atom_site_fract_z 
_atom_site_charge 
O1          O  0.16844870  0.39264437  0.51191075    -0.79640
C2          C  0.19180823  0.29946727  0.48105384     0.99720
O3          O  0.20363898  0.33192880  0.48180754    -0.68760
O4          O  0.20290091  0.39003242  0.48616687    -0.72350
Al5        Al  0.20520259  0.35624541  0.49859752     1.48980
C6          C  0.17685015  0.38862085  0.47993530     0.94970
O7          O  0.09270470  0.31256421  0.49322865    -0.78570
O8          O  0.10230832  0.27789948  0.51525582    -0.72130
Al9        Al  0.13331119  0.35015176  0.50260491     1.90120
O10         O  0.11108517  0.27701260  0.48650841    -0.71190
O11         O  0.16570167  0.28715328  0.51871151    -0.71050
O12         O  0.17030653  0.27909375  0.49010703    -0.76710
O13         O  0.21663877  0.32726198  0.51018631    -0.74910
O14         O  0.15933104  0.33027965  0.50134218    -1.11040
O15         O  0.21227112  0.38375844  0.51510094    -0.70240
C16         C  0.19748038  0.40111994  0.51763754     1.00480
C17         C  0.09005486  0.28808405  0.48531010     0.96880
Al18       Al  0.13904140  0.28406708  0.50261019     1.55560
O19         O  0.14642122  0.36957932  0.48456347    -0.74860
C20         C  0.19868783  0.30215191  0.51859918     1.01040
C21         C  0.09776398  0.29914516  0.52267241     0.95920
O22         O  0.11661137  0.33169744  0.52082680    -0.80180
C23         C  0.35001751  0.38436890  0.37661109     0.05290
C24         C  0.34537738  0.36583653  0.38922425    -0.10860
C25         C  0.31151007  0.34217417  0.39411888     0.02790
C26         C  0.28228773  0.33647624  0.38623006    -0.09390
C27         C  0.28651930  0.35468404  0.37361323     0.05280
C28         C  0.32042649  0.37852274  0.36889209    -0.08810
H29         H  0.36798080  0.36985477  0.39519437     0.10880
H30         H  0.25618363  0.31774705  0.38989500     0.08400
H31         H  0.32385186  0.39085861  0.35869226     0.08250
C32         C  0.26902583  0.24875628  0.45010270     0.05290
C33         C  0.25054959  0.26146549  0.45764707    -0.10860
C34         C  0.24826880  0.28999550  0.45272349     0.02790
C35         C  0.26484216  0.30596748  0.44002143    -0.09390
C36         C  0.28290046  0.29314756  0.43211991     0.05280
C37         C  0.28531881  0.26465855  0.43719943    -0.08810
H38         H  0.23955890  0.25009775  0.46785423     0.10880
H39         H  0.26331782  0.32815707  0.43619293     0.08400
H40         H  0.29948598  0.25489981  0.43115694     0.08250
C41         C  0.03316003  0.17749514  0.39376640     0.05290
C42         C  0.05346632  0.20639450  0.38511972    -0.10860
C43         C  0.06575934  0.20202758  0.37198765     0.02790
C44         C  0.05734940  0.16821782  0.36758879    -0.09390
C45         C  0.03647587  0.13900763  0.37613089     0.05280
C46         C  0.02421861  0.14380836  0.38918955    -0.08810
H47         H  0.05967121  0.23232149  0.38860767     0.10880
H48         H  0.06508541  0.16425641  0.35714243     0.08400
H49         H  0.00776248  0.12138923  0.39575473     0.08250
C50         C  0.00785402  0.19931636  0.43256245     0.05290
C51         C  0.47749679  0.18188983  0.43609023    -0.10860
C52         C  0.47238697  0.19449457  0.44908747     0.02790
C53         C  0.50134850  0.21548828  0.45777411    -0.09390
C54         C  0.03068394  0.23067881  0.45487916     0.05280
C55         C  0.03614197  0.21960092  0.44163502    -0.08810
H56         H  0.45525196  0.16523342  0.42938655     0.10880
H57         H  0.49708792  0.22292394  0.46823466     0.08400
H58         H  0.06241795  0.22673689  0.43838890     0.08250
C59         C  0.22827571  0.02244912  0.44940808     0.05290
C60         C  0.23343171  0.49936952  0.45737981    -0.10860
C61         C  0.21167240  0.46420749  0.45375114     0.02790
C62         C  0.18967290  0.45544364  0.44180011    -0.09390
C63         C  0.18921672  0.48192411  0.43384241     0.05280
C64         C  0.21120455  0.01745275  0.43635008    -0.08810
H65         H  0.24926620  0.50580269  0.46689208     0.10880
H66         H  0.17301828  0.42825941  0.43870868     0.08400
H67         H  0.21664388  0.03985489  0.42995398     0.08250
C68         C  0.13451599  0.45435487  0.39653102     0.05290
C69         C  0.14290018  0.43405107  0.38770829    -0.10860
C70         C  0.12744033  0.42296284  0.37430658     0.02790
C71         C  0.10324412  0.43245533  0.36974972    -0.09390
C72         C  0.09486800  0.45332852  0.37837848     0.05280
C73         C  0.11092139  0.46447445  0.39177962    -0.08810
H74         H  0.16185455  0.42713241  0.39123253     0.10880
H75         H  0.09271857  0.42562223  0.35909787     0.08400
H76         H  0.10524030  0.48108837  0.39842129     0.08250
O77         O  0.22501366  0.34063764  0.31399440    -0.79640
C78         C  0.13296683  0.36650277  0.34424429     0.99720
O79         O  0.16550524  0.37911632  0.34296958    -0.68760
O80         O  0.22471262  0.38067202  0.33786855    -0.72350
Al81       Al  0.18795222  0.37786133  0.32599839     1.48980
C82         C  0.22692924  0.35776364  0.34493658     0.94970
O83         O  0.14996020  0.26787068  0.33529642    -0.78570
O84         O  0.11098663  0.27085297  0.31250193    -0.72130
Al85       Al  0.18499260  0.30688266  0.32461521     1.90120
O86         O  0.11218712  0.28407906  0.34107828    -0.71190
O87         O  0.11665148  0.33228908  0.30747852    -0.71050
O88         O  0.11182130  0.34223699  0.33606931    -0.76710
O89         O  0.15655725  0.38518969  0.31445298    -0.74910
O90         O  0.16328144  0.33134853  0.32492207    -1.11040
O91         O  0.21324907  0.38192508  0.30915188    -0.70240
C92         C  0.23148392  0.36777704  0.30723270     1.00480
C93         C  0.12463903  0.26430518  0.34277984     0.96880
Al94       Al  0.11678538  0.30920804  0.32429127     1.55560
O95         O  0.20737395  0.32569021  0.34215612    -0.74860
C96         C  0.13095672  0.36514195  0.30657444     1.01040
C97         C  0.13209120  0.26565000  0.30531700     0.95920
O98         O  0.16466126  0.28491305  0.30705175    -0.80180
C99         C  0.34475212  0.47539805  0.26608272     0.05290
C100        C  0.37412365  0.48159602  0.27398562    -0.10860
C101        C  0.37011081  0.46425232  0.28683646     0.02790
C102        C  0.33623880  0.44065152  0.29173247    -0.09390
C103        C  0.30654470  0.43459208  0.28402827     0.05280
C104        C  0.31101065  0.45229051  0.27121106    -0.08810
H105        H  0.40014862  0.50014582  0.27018488     0.10880
H106        H  0.33290587  0.42884464  0.30204888     0.08400
H107        H  0.28830983  0.44813618  0.26527468     0.08250
C108        C  0.36965625  0.02594313  0.22578787     0.05290
C109        C  0.39012904  0.01729376  0.21728819    -0.10860
C110        C  0.40191808  0.03290429  0.20405725     0.02790
C111        C  0.39277059  0.05720415  0.19934965    -0.09390
C112        C  0.37155563  0.06542805  0.20775969     0.05280
C113        C  0.35984948  0.04948287  0.22096622    -0.08810
H114        H  0.39701497  0.99846880  0.22100059     0.10880
H115        H  0.40035451  0.06810778  0.18882145     0.08400
H116        H  0.34331482  0.05549237  0.22747714     0.08250
O117        O  0.44943006  0.45205497  0.14153085    -0.79640
C118        C  0.06317234  0.03633192  0.17439376     0.99720
O119        O  0.05965750  0.01107021  0.16677803    -0.68760
O120        O  0.50307639  0.45672594  0.17557923    -0.72350
Al121      Al  0.02274299  0.47993849  0.15769590     1.48980
C122        C  0.47081305  0.43640685  0.17761383     0.94970
O123        O  0.44934219  0.99713500  0.17382578    -0.78570
O124        O  0.49928289  0.04857539  0.13969246    -0.72130
Al125      Al  0.45182462  0.47625612  0.15855838     1.90120
O126        O  0.48744328  0.05133129  0.16814408    -0.71190
O127        O  0.05829248  0.05158297  0.14431898    -0.71050
O128        O  0.04325056  0.04861561  0.17269799    -0.76710
O129        O  0.04587247  0.50083844  0.14051501    -0.74910
O130        O  0.49829679  0.50128566  0.15826495    -1.11040
O131        O  0.48996994  0.43978282  0.14718176    -0.70240
C132        C  0.46342946  0.43357698  0.13994814     1.00480
C133        C  0.46211950  0.02961495  0.17560620     0.96880
Al134      Al  0.01929103  0.04511967  0.15557054     1.55560
O135        O  0.44846006  0.43884911  0.17017260    -0.74860
C136        C  0.06410205  0.03096888  0.13704747     1.01040
C137        C  0.46659559  0.03463952  0.13825177     0.95920
O138        O  0.44584388  0.00816435  0.14544237    -0.80180
C139        C  0.12779844  0.15174737  0.26495936     0.05290
C140        C  0.10767378  0.12285679  0.27364897    -0.10860
C141        C  0.09617737  0.12729356  0.28696321     0.02790
C142        C  0.10518791  0.16119388  0.29150903    -0.09390
C143        C  0.12595525  0.19043267  0.28295674     0.05280
C144        C  0.13743564  0.18553694  0.26971075    -0.08810
H145        H  0.10094039  0.09685671  0.27004166     0.10880
H146        H  0.09795651  0.16517582  0.30205430     0.08400
H147        H  0.15373866  0.20794777  0.26311918     0.08250
C148        C  0.15037107  0.12908409  0.22568251     0.05290
C149        C  0.12151198  0.10804002  0.21699003    -0.10860
C150        C  0.12607234  0.09640581  0.20370132     0.02790
C151        C  0.16013438  0.10623363  0.19918336    -0.09390
C152        C  0.18936944  0.12806541  0.20773610     0.05280
C153        C  0.18425364  0.13956753  0.22095739    -0.08810
H154        H  0.09541581  0.10071488  0.22057241     0.10880
H155        H  0.16413367  0.09880560  0.18866941     0.08400
H156        H  0.20660412  0.15658207  0.22755803     0.08250
C157        C  0.02742385  0.37435806  0.26493702     0.05290
C158        C  0.05032514  0.36370065  0.26987273    -0.10860
C159        C  0.06693773  0.37568060  0.28307236     0.02790
C160        C  0.06001350  0.39809071  0.29136916    -0.09390
C161        C  0.03651441  0.40828312  0.28663853     0.05280
C162        C  0.02037023  0.39628990  0.27336865    -0.08810
H163        H  0.05504113  0.34597345  0.26351794     0.10880
H164        H  0.07094019  0.40543885  0.30194275     0.08400
H165        H  0.00186158  0.40363700  0.26968146     0.08250
C166        C  0.44017077  0.31145072  0.20956466     0.05290
C167        C  0.45876342  0.31651261  0.22233346    -0.10860
C168        C  0.48294818  0.35058844  0.22719726     0.02790
C169        C  0.48923309  0.37949388  0.21902186    -0.09390
C170        C  0.47116552  0.37499564  0.20626409     0.05280
C171        C  0.44654231  0.34093616  0.20167262    -0.08810
H172        H  0.45442552  0.29406011  0.22843374     0.10880
H173        H  0.50840936  0.40568015  0.22258481     0.08400
H174        H  0.43405170  0.33720776  0.19144681     0.08250
O175        O  0.44470200  0.44172031  0.35232168    -0.79640
C176        C  0.03772800  0.06499123  0.31630969     0.99720
O177        O  0.01260647  0.06160992  0.32385966    -0.68760
O178        O  0.44894955  0.49673934  0.31864127    -0.72350
Al179      Al  0.47325327  0.01906693  0.33427853     1.48980
C180        C  0.43030599  0.46446123  0.31606999     0.94970
O181        O  0.99701346  0.44832372  0.31823923    -0.78570
O182        O  0.04137497  0.49467604  0.35442634    -0.72130
Al183      Al  0.47112335  0.44803026  0.33557045     1.90120
O184        O  0.04980906  0.48740927  0.32561850    -0.71190
O185        O  0.05188083  0.05899410  0.34659337    -0.71050
O186        O  0.04999519  0.04505755  0.31798525    -0.76710
O187        O  0.48818713  0.03833695  0.35245450    -0.74910
O188        O  0.49294190  0.49442802  0.33702466    -1.11040
O189        O  0.42835583  0.47929552  0.34659467    -0.70240
C190        C  0.42417077  0.45345021  0.35377822     1.00480
C191        C  0.02982631  0.46291241  0.31717132     0.96880
Al192      Al  0.04575640  0.02036440  0.33491065     1.55560
O193        O  0.43323974  0.44253111  0.32354634    -0.74860
C194        C  0.03085594  0.06425755  0.35381540     1.01040
C195        C  0.02891274  0.46203359  0.35493587     0.95920
O196        O  0.00423290  0.44171150  0.34673099    -0.80180
O197        O  0.39317244  0.17541620  0.97900929    -0.79640
C198        C  0.30198428  0.20189559  0.00932037     0.99720
O199        O  0.33447435  0.21467761  0.00774615    -0.68760
O200        O  0.39371742  0.21683140  0.00213275    -0.72350
Al201      Al  0.35590359  0.21258385  0.99065602     1.48980
C202        C  0.39699905  0.19488466  0.00941192     0.94970
O203        O  0.31964147  0.10350681  0.00108827    -0.78570
O204        O  0.27928483  0.10479673  0.97827136    -0.72130
Al205      Al  0.35389261  0.14207085  0.99000966     1.90120
O206        O  0.28145088  0.11922951  0.00675974    -0.71190
O207        O  0.28388893  0.16546961  0.97291367    -0.71050
O208        O  0.28043885  0.17692597  0.00149667    -0.76710
O209        O  0.32355521  0.21886174  0.97935659    -0.74910
O210        O  0.33165265  0.16603458  0.99014246    -1.11040
O211        O  0.38002848  0.21549648  0.97365091    -0.70240
C212        C  0.39896336  0.20201462  0.97201795     1.00480
C213        C  0.29419630  0.09974542  0.00852723     0.96880
Al214      Al  0.28513325  0.14347227  0.98985001     1.55560
O215        O  0.37722627  0.16246811  0.00730605    -0.74860
C216        C  0.29763926  0.19819451  0.97177537     1.01040
C217        C  0.30032365  0.09952282  0.97107112     0.95920
O218        O  0.33292304  0.11885418  0.97271105    -0.80180
C219        C  0.26746541  0.29339510  0.04182654     0.05290
C220        C  0.27476258  0.27110234  0.03363154    -0.10860
C221        C  0.29876260  0.26159661  0.03842855     0.02790
C222        C  0.31502929  0.27414149  0.05161587    -0.09390
C223        C  0.30751172  0.29583867  0.05995511     0.05280
C224        C  0.28416460  0.30588227  0.05497898    -0.08810
H225        H  0.26354821  0.26311915  0.02312116     0.10880
H226        H  0.33375893  0.26715127  0.05536551     0.08400
H227        H  0.27905251  0.32339333  0.06129175     0.08250
C228        C  0.39649611  0.35845689  0.11655354     0.05290
C229        C  0.37925178  0.35382808  0.10355837    -0.10860
C230        C  0.35539419  0.32002460  0.09856007     0.02790
C231        C  0.34795394  0.29081343  0.10672731    -0.09390
C232        C  0.36480901  0.29499785  0.11974748     0.05280
C233        C  0.38921286  0.32889104  0.12455609    -0.08810
H234        H  0.38433070  0.37644190  0.09738739     0.10880
H235        H  0.32888543  0.26477084  0.10297502     0.08400
H236        H  0.40075886  0.33244363  0.13498149     0.08250
C237        C  0.20243054  0.01241710  0.05920893     0.05290
C238        C  0.22280495  0.04137038  0.05061648    -0.10860
C239        C  0.23471845  0.03704996  0.03740536     0.02790
C240        C  0.22422783  0.50341270  0.03301627    -0.09390
C241        C  0.20310775  0.47417218  0.04150409     0.05280
C242        C  0.19080504  0.47901654  0.05456584    -0.08810
H243        H  0.22945329  0.06734608  0.05422895     0.10880
H244        H  0.23204251  0.49949612  0.02257776     0.08400
H245        H  0.17421948  0.45660200  0.06110827     0.08250
C246        C  0.17995516  0.03703970  0.09797654     0.05290
C247        C  0.14615446  0.02701250  0.10258262    -0.10860
C248        C  0.14113694  0.03946704  0.11556760     0.02790
C249        C  0.17038104  0.06189413  0.12400752    -0.09390
C250        C  0.20440159  0.07134521  0.11958722     0.05280
C251        C  0.20887272  0.05871810  0.10652167    -0.08810
H252        H  0.12376872  0.00949667  0.09609258     0.10880
H253        H  0.16641623  0.06998627  0.13439116     0.08400
H254        H  0.23492493  0.06566424  0.10302019     0.08250
C255        C  0.02277319  0.22884035  0.04068421     0.05290
C256        C  0.49381549  0.22138530  0.03295871    -0.10860
C257        C  0.46002504  0.19710408  0.03777683     0.02790
C258        C  0.45614146  0.18064466  0.05080832    -0.09390
C259        C  0.48548588  0.18830121  0.05899144     0.05280
C260        C  0.01825524  0.21172908  0.05363756    -0.08810
H261        H  0.49713278  0.23282494  0.02255941     0.10880
H262        H  0.43018960  0.16177714  0.05458362     0.08400
H263        H  0.04090390  0.21668439  0.05982069     0.08250
C264        C  0.45907621  0.10177643  0.11569110     0.05290
C265        C  0.47140188  0.11822651  0.10257459    -0.10860
C266        C  0.46175380  0.14188636  0.09766998     0.02790
C267        C  0.44063250  0.15001815  0.10605009    -0.09390
C268        C  0.42823561  0.13400708  0.11921688     0.05280
C269        C  0.43728955  0.10960140  0.12393307    -0.08810
H270        H  0.48850792  0.11267895  0.09622929     0.10880
H271        H  0.43396488  0.16900372  0.10234635     0.08400
H272        H  0.42939729  0.09848707  0.13441171     0.08250
O273        O  0.34395335  0.22995487  0.17951095    -0.79640
C274        C  0.36922966  0.13839244  0.14823895     0.99720
O275        O  0.38220885  0.17092097  0.14999005    -0.68760
O276        O  0.38495562  0.23038757  0.15595284    -0.72350
Al277      Al  0.38042961  0.19236198  0.16724908     1.48980
C278        C  0.36300348  0.23379934  0.14869443     0.94970
O279        O  0.27141178  0.15709280  0.15642642    -0.78570
O280        O  0.27205529  0.11582965  0.17875305    -0.72130
Al281      Al  0.31014403  0.19095133  0.16798556     1.90120
O282        O  0.28700240  0.11893968  0.15039630    -0.71190
O283        O  0.33246851  0.11994726  0.18437066    -0.71050
O284        O  0.34415114  0.11694133  0.15588917    -0.76710
O285        O  0.38610824  0.15946871  0.17835235    -0.74910
O286        O  0.33381308  0.16842773  0.16760877    -1.11040
O287        O  0.38421728  0.21679250  0.18447138    -0.70240
C288        C  0.37086659  0.23575991  0.18642741     1.00480
C289        C  0.26747452  0.13169632  0.14876274     0.96880
Al290      Al  0.31085654  0.12183929  0.16741547     1.55560
O291        O  0.33066433  0.21470700  0.15093021    -0.74860
C292        C  0.36513800  0.13332574  0.18564339     1.01040
C293        C  0.26654736  0.13653897  0.18611296     0.95920
O294        O  0.28635569  0.16924894  0.18504689    -0.80180
O295        O  0.11789657  0.28345026  0.01690234    -0.79640
C296        C  0.20394954  0.39861733  0.98151673     0.99720
O297        O  0.17852469  0.39501431  0.98894511    -0.68760
O298        O  0.12104609  0.33578976  0.98290874    -0.72350
Al299      Al  0.14420835  0.35656909  0.00015771     1.48980
C300        C  0.10113317  0.30334150  0.98095597     0.94970
O301        O  0.16371794  0.28370831  0.98293419    -0.78570
O302        O  0.21449354  0.33373439  0.01757622    -0.72130
Al303      Al  0.14223741  0.28610484  0.99993985     1.90120
O304        O  0.21776875  0.32178343  0.98906632    -0.71190
O305        O  0.21875149  0.39417572  0.01195009    -0.71050
O306        O  0.21674413  0.37924472  0.98346419    -0.76710
O307        O  0.16503009  0.38008146  0.01740179    -0.74910
O308        O  0.16648848  0.33267442  0.00025170    -1.11040
O309        O  0.10478622  0.32336105  0.01120354    -0.70240
C310        C  0.09882150  0.29685171  0.01831770     1.00480
C311        C  0.19621896  0.29665556  0.98132425     0.96880
Al312      Al  0.21304757  0.35535694  0.00052803     1.55560
O313        O  0.10437903  0.28153229  0.98835381    -0.74860
C314        C  0.19760564  0.39940613  0.01909376     1.01040
C315        C  0.20081418  0.30103696  0.01883796     0.95920
O316        O  0.17470471  0.28019054  0.01137053    -0.80180
C317        C  0.10310195  0.14368933  0.87430334     0.05290
C318        C  0.12104571  0.14822079  0.88706235    -0.10860
C319        C  0.14508251  0.18191670  0.89198102     0.02790
C320        C  0.15210130  0.21120671  0.88399001    -0.09390
C321        C  0.13452335  0.20715547  0.87118409     0.05280
C322        C  0.10979437  0.17327970  0.86642447    -0.08810
H323        H  0.11629187  0.12557760  0.89314162     0.10880
H324        H  0.17133235  0.23720382  0.88772904     0.08400
H325        H  0.09749857  0.16977973  0.85616336     0.08250
C326        C  0.23155403  0.20612297  0.94874636     0.05290
C327        C  0.21548309  0.19427093  0.93547366    -0.10860
C328        C  0.19225598  0.20442504  0.93051791     0.02790
C329        C  0.18415527  0.22550919  0.93895031    -0.09390
C330        C  0.19984130  0.23741541  0.95224922     0.05280
C331        C  0.22375182  0.22784309  0.95707209    -0.08810
H332        H  0.22101384  0.17721229  0.92904910     0.10880
H333        H  0.16550513  0.23258207  0.93517234     0.08400
H334        H  0.23454755  0.23537051  0.96766522     0.08250
C335        C  0.32201718  0.46403757  0.89193746     0.05290
C336        C  0.29238364  0.44398100  0.88351599    -0.10860
C337        C  0.29547676  0.43195751  0.87011447     0.02790
C338        C  0.32878179  0.44041761  0.86513367    -0.09390
C339        C  0.35884636  0.46120618  0.87338545     0.05280
C340        C  0.35528961  0.47317521  0.88679480    -0.08810
H341        H  0.26679084  0.43761916  0.88742075     0.10880
H342        H  0.33158692  0.43271424  0.85449264     0.08400
H343        H  0.37829937  0.48947748  0.89318982     0.08250
C344        C  0.29806160  0.48596038  0.93097610     0.05290
C345        C  0.30744595  0.01999541  0.93565232    -0.10860
C346        C  0.29429160  0.02445708  0.94856829     0.02790
C347        C  0.27221832  0.99489022  0.95675723    -0.09390
C348        C  0.26375807  0.46093376  0.95240090     0.05280
C349        C  0.27700385  0.45685071  0.93943743    -0.08810
H350        H  0.32472919  0.04264378  0.92934932     0.10880
H351        H  0.26373037  0.99847119  0.96710506     0.08400
H352        H  0.27095275  0.43098238  0.93593764     0.08250
C353        C  0.03944180  0.40147042  0.87640274     0.05290
C354        C  0.02686903  0.38440998  0.88936829    -0.10860
C355        C  0.03586583  0.36001081  0.89388273     0.02790
C356        C  0.05650335  0.35172408  0.88529014    -0.09390
C357        C  0.06908763  0.36834249  0.87226215     0.05280
C358        C  0.06070792  0.39347394  0.86790322    -0.08810
H359        H  0.01010788  0.39006914  0.89589646     0.10880
H360        H  0.06267930  0.33218590  0.88872819     0.08400
H361        H  0.06870464  0.40508303  0.85750754     0.08250
C362        C  0.47421984  0.27065354  0.94977842     0.05290
C363        C  0.00404252  0.27728656  0.95765002    -0.10860
C364        C  0.03786374  0.30160307  0.95286276     0.02790
C365        C  0.04175147  0.31877916  0.94002345    -0.09390
C366        C  0.01239345  0.31184201  0.93202731     0.05280
C367        C  0.47848160  0.28837894  0.93703360    -0.08810
H368        H  0.50068423  0.26540202  0.96791858     0.10880
H369        H  0.06770632  0.33771595  0.93627182     0.08400
H370        H  0.45573523  0.28356422  0.93095288     0.08250
O371        O  0.11271414  0.28466359  0.80735935    -0.79640
C372        C  0.23001846  0.37191671  0.84175505     0.99720
O373        O  0.22586711  0.34640514  0.83418779    -0.68760
O374        O  0.16725332  0.28909710  0.84084724    -0.72350
Al375      Al  0.18661692  0.31165646  0.82344608     1.48980
C376        C  0.13493850  0.26945016  0.84311611     0.94970
O377        O  0.11406744  0.33144514  0.84125584    -0.78570
O378        O  0.16264665  0.38118998  0.80671454    -0.72130
Al379      Al  0.11601588  0.30945607  0.82426640     1.90120
O380        O  0.15227660  0.38534760  0.83529185    -0.71190
O381        O  0.22236997  0.38568586  0.81167370    -0.71050
O382        O  0.21017884  0.38438114  0.84033020    -0.76710
O383        O  0.20848164  0.33196848  0.80596531    -0.74910
O384        O  0.16250483  0.33378476  0.82375306    -1.11040
O385        O  0.15293185  0.27179560  0.81275136    -0.70240
C386        C  0.12618622  0.26572476  0.80577614     1.00480
C387        C  0.12726524  0.36399001  0.84298013     0.96880
Al388      Al  0.18499861  0.38028234  0.82352868     1.55560
O389        O  0.11255592  0.27237926  0.83593189    -0.74860
C390        C  0.22657125  0.36455716  0.80402915     1.01040
C391        C  0.13004430  0.36680597  0.80513243     0.95920
O392        O  0.10932299  0.34119583  0.81272508    -0.80180
C393        C  0.43060949  0.12760298  0.70909821     0.05290
C394        C  0.44664448  0.13924862  0.72237574    -0.10860
C395        C  0.46980120  0.12898066  0.72726136     0.02790
C396        C  0.47793014  0.10803887  0.71877387    -0.09390
C397        C  0.46229418  0.09633802  0.70546791     0.05280
C398        C  0.43835121  0.10593496  0.70069554    -0.08810
H399        H  0.44114961  0.15625176  0.72885744     0.10880
H400        H  0.49658178  0.10092490  0.72251444     0.08400
H401        H  0.42752263  0.09850082  0.69010261     0.08250
C402        C  0.05757506  0.18984005  0.78359126     0.05290
C403        C  0.04006940  0.18526769  0.77073594    -0.10860
C404        C  0.01664961  0.15153773  0.76571062     0.02790
C405        C  0.00976744  0.12226092  0.77366082    -0.09390
C406        C  0.02692602  0.12641668  0.78657059     0.05280
C407        C  0.05103073  0.16032417  0.79147050    -0.08810
H408        H  0.04475484  0.20788184  0.76465038     0.10880
H409        H  0.99099995  0.09621346  0.76980676     0.08400
H410        H  0.06300116  0.16388271  0.80180892     0.08250
O411        O  0.06077048  0.01356337  0.64557595    -0.79640
C412        C  0.46636232  0.03724218  0.67648874     0.99720
O413        O  0.49889051  0.05034105  0.67491351    -0.68760
O414        O  0.06082752  0.05461254  0.66893306    -0.72350
Al415      Al  0.02296793  0.05010124  0.65735395     1.48980
C416        C  0.06402437  0.03263448  0.67624134     0.94970
O417        O  0.48627455  0.44038519  0.66837780    -0.78570
O418        O  0.44533088  0.44096031  0.64580185    -0.72130
Al419      Al  0.01949896  0.47841350  0.65751588     1.90120
O420        O  0.44820774  0.45606216  0.67427086    -0.71190
O421        O  0.44821986  0.00062856  0.64024521    -0.71050
O422        O  0.44495908  0.01205093  0.66875251    -0.76710
O423        O  0.48797227  0.05418540  0.64649438    -0.74910
O424        O  0.49661588  0.00186385  0.65742734    -1.11040
O425        O  0.04759973  0.05363564  0.64028784    -0.70240
C426        C  0.06658912  0.04022609  0.63857520     1.00480
C427        C  0.46113197  0.43671822  0.67601434     0.96880
Al428      Al  0.45108314  0.47969952  0.65720125     1.55560
O429        O  0.04470758  0.00025972  0.67395326    -0.74860
C430        C  0.46178924  0.03334252  0.63905135     1.01040
C431        C  0.46635184  0.43591152  0.63849746     0.95920
O432        O  0.49897591  0.45553937  0.63993740    -0.80180
C433        C  0.34739953  0.37892084  0.76611485     0.05290
C434        C  0.31230702  0.36413805  0.77023542    -0.10860
C435        C  0.30363193  0.37694958  0.78227303     0.02790
C436        C  0.33036729  0.40404259  0.79036174    -0.09390
C437        C  0.36547233  0.41808538  0.78672415     0.05280
C438        C  0.37399673  0.40569678  0.77440126    -0.08810
H439        H  0.29180236  0.34300201  0.76403113     0.10880
H440        H  0.32402113  0.41282881  0.80010542     0.08400
H441        H  0.40109389  0.41675439  0.77126702     0.08250
C442        C  0.37295265  0.31245032  0.71018786     0.05290
C443        C  0.36254269  0.31814625  0.72357385    -0.10860
C444        C  0.37346090  0.35235611  0.72827607     0.02790
C445        C  0.39373657  0.38078675  0.71939862    -0.09390
C446        C  0.40415546  0.37558944  0.70597950     0.05280
C447        C  0.39396624  0.34135429  0.70149533    -0.08810
H448        H  0.34592984  0.29606020  0.73026095     0.10880
H449        H  0.40122426  0.40706347  0.72290469     0.08400
H450        H  0.40038561  0.33692895  0.69086811     0.08250
C451        C  0.12475727  0.43281950  0.78155587     0.05290
C452        C  0.10492588  0.44195094  0.79033804    -0.10860
C453        C  0.09636996  0.46692278  0.78607872     0.02790
C454        C  0.10803875  0.48299578  0.77288734    -0.09390
C455        C  0.12784709  0.47409235  0.76402581     0.05280
C456        C  0.13657277  0.44931298  0.76841465    -0.08810
H457        H  0.09810272  0.43114747  0.80089530     0.10880
H458        H  0.10183207  0.50257089  0.76953918     0.08400
H459        H  0.15250881  0.44296871  0.76168061     0.08250
C460        C  0.18879896  0.06542728  0.70864011     0.05290
C461        C  0.15928733  0.05860590  0.70060673    -0.10860
C462        C  0.12541197  0.03383009  0.70513314     0.02790
C463        C  0.12124863  0.01619725  0.71789149    -0.09390
C464        C  0.15044053  0.02319942  0.72605725     0.05280
C465        C  0.18418378  0.04739437  0.72134652    -0.08810
H466        H  0.16289047  0.07083333  0.69036820     0.10880
H467        H  0.09523791  0.99686213  0.72143962     0.08400
H468        H  0.20677403  0.05216099  0.72752794     0.08250
O469        O  0.00745111  0.06154742  0.84502050    -0.79640
C470        C  0.04052429  0.47091477  0.81640186     0.99720
O471        O  0.05187578  0.50332773  0.81754479    -0.68760
O472        O  0.04862317  0.06176302  0.82210308    -0.72350
Al473      Al  0.04465187  0.02422280  0.83357161     1.48980
C474        C  0.02646593  0.06458156  0.81473234     0.94970
O475        O  0.44220471  0.48410319  0.81915038    -0.78570
O476        O  0.44076937  0.44663337  0.84416755    -0.72130
Al477      Al  0.47613148  0.01846707  0.83111228     1.90120
O478        O  0.46182295  0.44771340  0.81663895    -0.71190
O479        O  0.00055809  0.45507938  0.85254151    -0.71050
O480        O  0.51889766  0.45086866  0.82461599    -0.76710
O481        O  0.05104021  0.99205734  0.84489720    -0.74910
O482        O  0.50283942  0.50034883  0.83350132    -1.11040
O483        O  0.04751367  0.04854814  0.85059237    -0.70240
C484        C  0.03409994  0.06758230  0.85210027     1.00480
C485        C  0.44273793  0.45923286  0.81251734     0.96880
Al486      Al  0.48243841  0.45411586  0.83447307     1.55560
O487        O  0.99412056  0.04473868  0.81677182    -0.74860
C488        C  0.03321263  0.46895354  0.85400950     1.01040
C489        C  0.43314540  0.46733287  0.85035158     0.95920
O490        O  0.45104642  0.49977360  0.84823769    -0.80180
O491        O  0.28581600  0.11949388  0.47229624    -0.79640
C492        C  0.39846619  0.20165650  0.50988192     0.99720
O493        O  0.39444165  0.17593296  0.50245176    -0.68760
O494        O  0.33265641  0.12128461  0.50803144    -0.72350
Al495      Al  0.35555534  0.14235673  0.49095083     1.48980
C496        C  0.29988907  0.10299954  0.50946167     0.94970
O497        O  0.28422462  0.16805114  0.50520749    -0.78570
O498        O  0.34231796  0.21634166  0.47211120    -0.72130
Al499      Al  0.28782993  0.14529395  0.48878438     1.90120
O500        O  0.32600208  0.22118819  0.50013397    -0.71190
O501        O  0.39839391  0.21602688  0.47947831    -0.71050
O502        O  0.37994883  0.21526696  0.50763986    -0.76710
O503        O  0.38037341  0.16120670  0.47385882    -0.74910
O504        O  0.33418851  0.16698587  0.48985516    -1.11040
O505        O  0.32180138  0.10299160  0.47990086    -0.70240
C506        C  0.29707514  0.09848338  0.47188966     1.00480
C507        C  0.29918830  0.20061213  0.50725832     0.96880
Al508      Al  0.35952259  0.21340496  0.48984806     1.55560
O509        O  0.27960525  0.10707434  0.50126457    -0.74860
C510        C  0.40116062  0.19349580  0.47210178     1.01040
C511        C  0.31072548  0.20405371  0.46897036     0.95920
O512        O  0.28670052  0.17915771  0.47606527    -0.80180
C513        C  0.21203131  0.23876324  0.54152736     0.05290
C514        C  0.23360536  0.23121534  0.53299227    -0.10860
C515        C  0.24218879  0.20609597  0.53719420     0.02790
C516        C  0.22944809  0.18897590  0.55020635    -0.09390
C517        C  0.20843742  0.19666498  0.55892731     0.05280
C518        C  0.19948276  0.22124187  0.55448095    -0.08810
H519        H  0.24146486  0.24289222  0.52261139     0.10880
H520        H  0.23559148  0.16931273  0.55348148     0.08400
H521        H  0.18237134  0.22641207  0.56100442     0.08250
C522        C  0.14216145  0.10785431  0.61552215     0.05290
C523        C  0.14731505  0.12436795  0.60230821    -0.10860
C524        C  0.18139181  0.14781900  0.59746163     0.02790
C525        C  0.21021948  0.15562247  0.60606090    -0.09390
C526        C  0.20555722  0.13959111  0.61926968     0.05280
C527        C  0.17149697  0.11558210  0.62387523    -0.08810
H528        H  0.12494166  0.11897181  0.59584376     0.10880
H529        H  0.23641359  0.17432966  0.60247611     0.08400
H530        H  0.16763763  0.10459143  0.63438978     0.08250
C531        C  0.48561307  0.29611464  0.56063724     0.05290
C532        C  0.45659096  0.27499343  0.55205398    -0.10860
C533        C  0.46077854  0.26176979  0.53910723     0.02790
C534        C  0.99327007  0.27231178  0.53478740    -0.09390
C535        C  0.02213945  0.29359989  0.54358845     0.05280
C536        C  0.01690142  0.30597850  0.55650366    -0.08810
H537        H  0.43069706  0.26884194  0.55545359     0.10880
H538        H  0.99759885  0.26426867  0.52445333     0.08400
H539        H  0.03906697  0.32263080  0.56326138     0.08250
C540        C  0.46273348  0.32130004  0.59913255     0.05290
C541        C  0.47240520  0.35518964  0.60366715    -0.10860
C542        C  0.46021190  0.36035987  0.61666470     0.02790
C543        C  0.43868541  0.33132513  0.62518745    -0.08910
C544        C  0.42956458  0.29731898  0.62080875     0.05280
C545        C  0.44181429  0.29256951  0.60774928    -0.08810
H546        H  0.48926888  0.37745161  0.59709990     0.10880
H547        H  0.43089425  0.33549491  0.63558949     0.08400
H548        H  0.43502981  0.26645766  0.60427907     0.08250
C549        C  0.26639072  0.47636621  0.54074332     0.05290
C550        C  0.27123030  0.00726090  0.53411103    -0.10860
C551        C  0.29496066  0.04135380  0.53900258     0.02790
C552        C  0.31225615  0.04571615  0.55194900    -0.09390
C553        C  0.30620103  0.01661663  0.55988514     0.05280
C554        C  0.28269492  0.48022985  0.55394190    -0.08810
H555        H  0.25930599  0.00353238  0.52375824     0.10880
H556        H  0.33089877  0.07184728  0.55575813     0.08400
H557        H  0.27649328  0.45727720  0.56010803     0.08250
C558        C  0.39481660  0.04131982  0.61636260     0.05290
C559        C  0.37824230  0.02931143  0.60315119    -0.10860
C560        C  0.35504181  0.03966056  0.59827173     0.02790
C561        C  0.34748822  0.06107954  0.60676080    -0.09390
C562        C  0.36360246  0.07313702  0.61999219     0.05280
C563        C  0.38750661  0.06341156  0.62470341    -0.08810
H564        H  0.38336883  0.01198760  0.59671506     0.10880
H565        H  0.32886772  0.06828849  0.60307841     0.08400
H566        H  0.39867110  0.07111261  0.63523402     0.08250
O567        O  0.28252990  0.12006015  0.68453777    -0.79640
C568        C  0.36949905  0.23568929  0.64983467     0.99720
O569        O  0.34419668  0.23235317  0.65726991    -0.68760
O570        O  0.28613081  0.17388601  0.65102608    -0.72350
Al571      Al  0.30960951  0.19400127  0.66837547     1.48980
C572        C  0.26638276  0.14155038  0.64872865     0.94970
O573        O  0.32813042  0.12080404  0.65047113    -0.78570
O574        O  0.37855223  0.16918827  0.68544472    -0.72130
Al575      Al  0.30666723  0.12296348  0.66755024     1.90120
O576        O  0.38218805  0.15789289  0.65689607    -0.71190
O577        O  0.38415645  0.23032691  0.68014213    -0.71050
O578        O  0.38191113  0.21593995  0.65166200    -0.76710
O579        O  0.33083830  0.21727428  0.68573268    -0.74910
O580        O  0.33134811  0.16951194  0.66819439    -1.11040
O581        O  0.27014676  0.16080797  0.67940183    -0.70240
C582        C  0.26403096  0.13397009  0.68631267     1.00480
C583        C  0.36058538  0.13311268  0.64902118     0.96880
Al584      Al  0.37782657  0.19153208  0.66854305     1.55560
O585        O  0.26919886  0.11934194  0.65602184    -0.74860
C586        C  0.36351104  0.23611568  0.68737387     1.01040
C587        C  0.36458594  0.13640550  0.68644747     0.95920
O588        O  0.33859952  0.11604097  0.67883849    -0.80180
C589        C  0.35235018  0.09286987  0.62923653    -0.14270
C590        C  0.37366521  0.11724145  0.63868380    -0.29450
H591        H  0.32547276  0.08695985  0.62823516     0.14750
H592        H  0.40111979  0.12493575  0.63918857     0.15320
C593        C  0.32394801  0.02182774  0.57323729    -0.11110
C594        C  0.33855912  0.02852318  0.58457655    -0.12670
C595        C  0.40997180  0.26682253  0.63020259    -0.14270
C596        C  0.38564694  0.26422887  0.63945948    -0.29450
H597        H  0.41583252  0.24582579  0.62945131     0.14750
H598        H  0.37790277  0.28387951  0.63967508     0.15320
C599        C  0.48050493  0.30810181  0.57413472    -0.11110
C600        C  0.47376653  0.31557558  0.58554692    -0.12670
C601        C  0.23625005  0.15074816  0.62868671    -0.14270
C602        C  0.23827891  0.12909601  0.63802787    -0.29450
H603        H  0.25761169  0.17769784  0.62799645     0.14750
H604        H  0.21821668  0.10155800  0.63813011     0.15320
C605        C  0.19586862  0.17891728  0.57236420    -0.11110
C606        C  0.18749679  0.16429910  0.58371504    -0.12670
C607        C  0.28440298  0.21485273  0.51768270    -0.14270
C608        C  0.26086512  0.19429473  0.52750399    -0.29450
H609        H  0.29278409  0.24247774  0.51717696     0.14750
H610        H  0.25475900  0.16734638  0.52847908     0.15320
C611        C  0.30587508  0.07246817  0.52996733    -0.14270
C612        C  0.28524735  0.07483146  0.52012003    -0.29450
H613        H  0.33268626  0.09391272  0.53115999     0.14750
H614        H  0.25780324  0.05479194  0.51931519     0.15320
C615        C  0.42661566  0.21710545  0.52058516    -0.14270
C616        C  0.43008010  0.24229691  0.52965063    -0.29450
H617        H  0.44554850  0.20843882  0.52065389     0.14750
H618        H  0.40980851  0.24920500  0.53010876     0.15320
C619        C  0.22446417  0.08824958  0.70297041    -0.14270
C620        C  0.23279692  0.11703186  0.69542846    -0.29450
H621        H  0.24348399  0.07990696  0.70428200     0.14750
H622        H  0.21441408  0.12634519  0.69477586     0.15320
C623        C  0.07788617  0.47863095  0.79577036    -0.14270
C624        C  0.05566186  0.45785243  0.80583130    -0.29450
H625        H  0.08296516  0.50520546  0.79466084     0.14750
H626        H  0.04838821  0.43053027  0.80644095     0.15320
C627        C  0.13894881  0.49066312  0.75043922    -0.11110
C628        C  0.14531969  0.00559134  0.73935002    -0.12670
C629        C  0.35881002  0.27629423  0.70459140    -0.14270
C630        C  0.37848659  0.26755437  0.69660135    -0.29450
H631        H  0.33127413  0.25742847  0.70627294     0.14750
H632        H  0.40636724  0.28602721  0.69561330     0.15320
C633        C  0.39219415  0.44354403  0.79676134    -0.14270
C634        C  0.42042875  0.44155980  0.80007817    -0.29450
H635        H  0.38577811  0.46005473  0.80317343     0.14750
H636        H  0.42523663  0.42288438  0.79444393     0.15320
C637        C  0.35598251  0.36705332  0.75322023    -0.11110
C638        C  0.36333642  0.35882675  0.74203704    -0.12670
C639        C  0.09447573  0.02322979  0.69597870    -0.14270
C640        C  0.09210495  0.04521016  0.68693023    -0.29450
H641        H  0.07329581  0.99615409  0.69649776     0.14750
H642        H  0.11195045  0.07281861  0.68694658     0.15320
C643        C  0.42266699  0.40588920  0.69633115    -0.14270
C644        C  0.44584640  0.40825397  0.68650836    -0.29450
H645        H  0.41704073  0.42699568  0.69739918     0.14750
H646        H  0.45347563  0.38853110  0.68597360     0.15320
C647        C  0.41675728  0.02779657  0.62208805    -0.14270
C648        C  0.44525094  0.04794907  0.63004733    -0.29450
H649        H  0.40813562  0.00030236  0.62037041     0.14750
H650        H  0.45472737  0.07579395  0.63110914     0.15320
C651        C  0.09801223  0.05732864  0.62942213    -0.14270
C652        C  0.10627312  0.08542517  0.62133659    -0.29450
H653        H  0.11661088  0.04834887  0.63037604     0.14750
H654        H  0.08713164  0.09344855  0.61965697     0.15320
C655        C  0.47296762  0.39628999  0.62199370    -0.14270
C656        C  0.45218549  0.40444740  0.62944396    -0.29450
H657        H  0.50048262  0.41560880  0.62056198     0.14750
H658        H  0.42437180  0.38553014  0.63024496     0.15320
C659        C  0.01659099  0.09531323  0.79540791    -0.14270
C660        C  0.03878742  0.09292085  0.80432827    -0.29450
H661        H  0.98960065  0.07398613  0.79471858     0.14750
H662        H  0.06630605  0.11301043  0.80446873     0.15320
C663        C  0.38055961  0.12127985  0.69539895    -0.14270
C664        C  0.40887922  0.14123696  0.70341947    -0.29450
H665        H  0.37101922  0.09344338  0.69421567     0.14750
H666        H  0.41753881  0.16871255  0.70523515     0.15320
C667        C  0.47404793  0.07713063  0.69623502    -0.14270
C668        C  0.45289864  0.05260998  0.68683421    -0.29450
H669        H  0.50108460  0.08351921  0.69721339     0.14750
H670        H  0.42531234  0.04443348  0.68638444     0.15320
C671        C  0.48561926  0.13975929  0.74098460    -0.11110
C672        C  0.49981191  0.14610742  0.75234489    -0.12670
C673        C  0.26713558  0.36005942  0.78737284    -0.14270
C674        C  0.25537671  0.37927391  0.79379044    -0.29450
H675        H  0.25160049  0.33163824  0.78736583     0.14750
H676        H  0.27073660  0.40766994  0.79321027     0.15320
C677        C  0.11574818  0.38211368  0.79539536    -0.14270
C678        C  0.13645026  0.40924847  0.78698907    -0.29450
H679        H  0.08820282  0.37380205  0.79647185     0.14750
H680        H  0.16353965  0.41650249  0.78524286     0.15320
C681        C  0.07990765  0.22546768  0.78940622    -0.14270
C682        C  0.10900012  0.23415593  0.79680089    -0.29450
H683        H  0.07124181  0.24425796  0.78816641     0.14750
H684        H  0.11853442  0.21593290  0.79738637     0.15320
C685        C  0.02685687  0.42432177  0.87099047    -0.14270
C686        C  0.04759957  0.45306014  0.86342243    -0.29450
H687        H  0.99930819  0.41573440  0.87233913     0.14750
H688        H  0.07541631  0.46234373  0.86264631     0.15320
C689        C  0.11232316  0.37755552  0.85350155    -0.14270
C690        C  0.08788554  0.35644619  0.86283364    -0.29450
H691        H  0.12085289  0.40525159  0.85325824     0.14750
H692        H  0.08117487  0.32926815  0.86357626     0.15320
C693        C  0.01724469  0.32895325  0.91867286    -0.11110
C694        C  0.02423696  0.34330916  0.90737331    -0.12670
C695        C  0.39413322  0.47359039  0.86739058    -0.14270
C696        C  0.40127663  0.45302634  0.85914094    -0.29450
H697        H  0.41417171  0.50073362  0.86928591     0.14750
H698        H  0.38203468  0.42535387  0.85798372     0.15320
C699        C  0.25963513  0.38806561  0.85174335    -0.14270
C700        C  0.26393732  0.41303411  0.86107327    -0.29450
H701        H  0.27874611  0.37964553  0.85118196     0.14750
H702        H  0.24359773  0.41971128  0.86222159     0.15320
C703        C  0.31759257  0.47476294  0.90588445    -0.11110
C704        C  0.31021576  0.48105355  0.91743912    -0.12670
C705        C  0.08042265  0.10797520  0.86852446    -0.14270
C706        C  0.05137645  0.09929763  0.86106090    -0.29450
H707        H  0.08887858  0.08904170  0.86983676     0.14750
H708        H  0.04200969  0.11763868  0.86037756     0.15320
C709        C  0.14505478  0.23828374  0.86228432    -0.14270
C710        C  0.12276866  0.24112638  0.85356164    -0.29450
H711        H  0.17222268  0.25927388  0.86278608     0.14750
H712        H  0.09513888  0.22136280  0.85361749     0.15320
C713        C  0.16235469  0.18681027  0.90535742    -0.11110
C714        C  0.17640279  0.19342271  0.91677467    -0.12670
C715        C  0.21976832  0.42709499  0.97104410    -0.14270
C716        C  0.24427888  0.43015173  0.96174940    -0.29450
H717        H  0.21160649  0.44642666  0.97125082     0.14750
H718        H  0.25056708  0.40945618  0.96100820     0.15320
C719        C  0.20947754  0.28118713  0.97092392    -0.14270
C720        C  0.18826648  0.25686181  0.96145560    -0.29450
H721        H  0.23700851  0.28915642  0.97138874     0.14750
H722        H  0.16131302  0.25071836  0.96045229     0.15320
C723        C  0.07223814  0.29051867  0.97063528    -0.14270
C724        C  0.06921257  0.31234983  0.96175033    -0.29450
H725        H  0.05231497  0.26293901  0.97080077     0.14750
H726        H  0.09035096  0.33941513  0.96106734     0.15320
C727        C  0.38457172  0.12490934  0.13782268    -0.14270
C728        C  0.40898148  0.14588506  0.12843718    -0.29450
H729        H  0.37637986  0.09730530  0.13821793     0.14750
H730        H  0.41536868  0.17292870  0.12751615     0.15320
C731        C  0.05845012  0.25106595  0.03486691    -0.14270
C732        C  0.06714680  0.27978860  0.02722105    -0.29450
H733        H  0.07732033  0.24259352  0.03634013     0.14750
H734        H  0.04885237  0.28917966  0.02639911     0.15320
C735        C  0.47335836  0.15808922  0.08403033    -0.11110
C736        C  0.48050999  0.17193969  0.07258918    -0.12670
C737        C  0.23840937  0.11565132  0.13840894    -0.14270
C738        C  0.23526628  0.09120065  0.12898072    -0.29450
H739        H  0.21878057  0.12339490  0.13883516     0.14750
H740        H  0.25621206  0.08532188  0.12808150     0.15320
C741        C  0.21159055  0.43070621  0.02829350    -0.14270
C742        C  0.19073950  0.43835828  0.03601089    -0.29450
H743        H  0.23932483  0.44986802  0.02744997     0.14750
H744        H  0.16335794  0.41871345  0.03751143     0.15320
C745        C  0.19175264  0.01785760  0.07294723    -0.11110
C746        C  0.18523913  0.02531107  0.08442404    -0.12670
C747        C  0.35388200  0.26408128  0.12885102    -0.14270
C748        C  0.37565376  0.26182511  0.13809382    -0.29450
H749        H  0.32684924  0.24286847  0.12811612     0.14750
H750        H  0.40324661  0.28167999  0.13825305     0.15320
C751        C  0.24551353  0.30674383  0.03597509    -0.14270
C752        C  0.21716081  0.28648174  0.02796619    -0.29450
H753        H  0.25406405  0.33424316  0.03762373     0.14750
H754        H  0.20770303  0.25862963  0.02696511     0.15320
C755        C  0.32408949  0.30760999  0.07361036    -0.11110
C756        C  0.33841046  0.31482816  0.08502077    -0.12670
C757        C  0.28878455  0.21746035  0.01974913    -0.14270
C758        C  0.31002673  0.24174579  0.02925061    -0.29450
H759        H  0.26130697  0.20967189  0.01924327     0.14750
H760        H  0.33691489  0.24769659  0.03026177     0.15320
C761        C  0.27832317  0.07098771  0.01881129    -0.14270
C762        C  0.25381100  0.06779119  0.02809030    -0.29450
H763        H  0.28646431  0.05163717  0.01851208     0.14750
H764        H  0.24750686  0.08846387  0.02894789     0.15320
C765        C  0.42875275  0.18594313  0.02876808    -0.14270
C766        C  0.42575213  0.20764871  0.01979863    -0.29450
H767        H  0.40770268  0.15884374  0.02945827     0.14750
H768        H  0.44557749  0.23526687  0.01967166     0.15320
C769        C  0.43030500  0.21914454  0.96299155    -0.14270
C770        C  0.43868375  0.24804032  0.95555540    -0.29450
H771        H  0.44867682  0.20980756  0.96360163     0.14750
H772        H  0.41970797  0.25646060  0.95430103     0.15320
C773        C  0.28617184  0.06816234  0.96187237    -0.14270
C774        C  0.30691852  0.06020433  0.95423984    -0.29450
H775        H  0.25835220  0.04925541  0.96262279     0.14750
H776        H  0.33441314  0.07964168  0.95285501     0.15320
C777        C  0.28155786  0.21293514  0.96265497    -0.14270
C778        C  0.25346073  0.19276397  0.95453620    -0.29450
H779        H  0.29088033  0.24074134  0.96376689     0.14750
H780        H  0.24505149  0.16533137  0.95277267     0.15320
C781        C  0.41715153  0.27552536  0.20359955    -0.14270
C782        C  0.38841373  0.26715944  0.19578704    -0.29450
H783        H  0.42534007  0.25639357  0.20489895     0.14750
H784        H  0.37924792  0.28566471  0.19517741     0.15320
C785        C  0.02493762  0.42749783  0.29607212    -0.14270
C786        C  0.04487022  0.44970922  0.30647226    -0.29450
H787        H  0.99836996  0.42221914  0.29463666     0.14750
H788        H  0.07217209  0.45719473  0.30752489     0.15320
C789        C  0.50144604  0.35678575  0.24060000    -0.11110
C790        C  0.01056705  0.36260782  0.25130375    -0.12670
C791        C  0.22540589  0.14186572  0.20230927    -0.14270
C792        C  0.23442498  0.12178093  0.19475996    -0.29450
H793        H  0.24429474  0.16946160  0.20400685     0.14750
H794        H  0.21591289  0.09388145  0.19369410     0.15320
C795        C  0.05361424  0.09377643  0.30600194    -0.14270
C796        C  0.07739460  0.09660977  0.29639696    -0.29450
H797        H  0.04580476  0.11336653  0.30648947     0.14750
H798        H  0.08326833  0.07567043  0.29534816     0.15320
C799        C  0.13822610  0.14634859  0.25111837    -0.11110
C800        C  0.14488305  0.13962810  0.23950075    -0.12670
C801        C  0.48113709  0.40592191  0.19718258    -0.14270
C802        C  0.45886158  0.40803984  0.18812487    -0.29450
H803        H  0.50803411  0.42744671  0.19781590     0.14750
H804        H  0.43141475  0.38778245  0.18799947     0.15320
C805        C  0.09221448  0.05261700  0.18475095    -0.14270
C806        C  0.09522322  0.07685591  0.19425482    -0.29450
H807        H  0.11196318  0.04503110  0.18430548     0.14750
H808        H  0.07419601  0.08259609  0.19522354     0.15320
C809        C  0.41891597  0.39413318  0.12253727    -0.14270
C810        C  0.44699563  0.40233162  0.13064754    -0.29450
H811        H  0.41080033  0.41324857  0.12097322     0.14750
H812        H  0.45619143  0.38389213  0.13154340     0.15320
C813        C  0.09604011  0.04588850  0.12834491    -0.14270
C814        C  0.10515693  0.02573834  0.12093922    -0.29450
H815        H  0.11435409  0.07385896  0.12929469     0.14750
H816        H  0.08639732  0.99805193  0.11937187     0.15320
C817        C  0.45197527  0.05116010  0.12926011    -0.14270
C818        C  0.47225527  0.07962877  0.12144798    -0.29450
H819        H  0.42416843  0.04177619  0.13020935     0.14750
H820        H  0.49970113  0.08808817  0.11985151     0.15320
C821        C  0.35874539  0.08791724  0.20220062    -0.14270
C822        C  0.37939510  0.11645197  0.19453478    -0.29450
H823        H  0.33136073  0.07970833  0.20380807     0.14750
H824        H  0.40713048  0.12548380  0.19357477     0.15320
C825        C  0.42118682  0.02118870  0.19488131    -0.14270
C826        C  0.44627333  0.04269073  0.18587630    -0.29450
H827        H  0.41452785  0.99402494  0.19561796     0.14750
H828        H  0.45461848  0.07035354  0.18570113     0.15320
C829        C  0.40120336  0.47423609  0.29585341    -0.14270
C830        C  0.40301536  0.45205776  0.30500958    -0.29450
H831        H  0.42264389  0.50118970  0.29535537     0.14750
H832        H  0.38288164  0.42454922  0.30497161     0.15320
C833        C  0.34963154  0.49288448  0.25269703    -0.11110
C834        C  0.35935168  0.01077476  0.23956210    -0.12670
C835        C  0.26260484  0.38438610  0.29799760    -0.14270
C836        C  0.27106496  0.41282430  0.29015774    -0.29450
H837        H  0.28061163  0.37460307  0.29859275     0.14750
H838        H  0.25232446  0.42152080  0.28885024     0.15320
C839        C  0.11590794  0.38079202  0.29734318    -0.14270
C840        C  0.08810223  0.36143957  0.28893277    -0.29450
H841        H  0.12577915  0.40867102  0.29860255     0.14750
H842        H  0.07921849  0.33394491  0.28703469     0.15320
C843        C  0.11800740  0.23432337  0.29610265    -0.14270
C844        C  0.13874789  0.22629392  0.28850838    -0.29450
H845        H  0.09020259  0.21535359  0.29687016     0.14750
H846        H  0.16625287  0.24565792  0.28709992     0.15320
C847        C  0.07257801  0.46669576  0.37268757    -0.14270
C848        C  0.04516741  0.44712387  0.36404251    -0.29450
H849        H  0.08030578  0.49378408  0.37490878     0.14750
H850        H  0.03654155  0.41959111  0.36245905     0.15320
C851        C  0.13967000  0.40456796  0.36473116    -0.14270
C852        C  0.11916288  0.38124941  0.35479274    -0.29450
H853        H  0.16654202  0.41056914  0.36589743     0.14750
H854        H  0.09167881  0.37335009  0.35411179     0.15320
C855        C  0.25140687  0.05837735  0.45501059    -0.14270
C856        C  0.27944746  0.06643389  0.46310028    -0.29450
H857        H  0.24407066  0.07794607  0.45307004     0.14750
H858        H  0.28767706  0.04733830  0.46442787     0.15320
C859        C  0.15141076  0.46534631  0.41023770    -0.11110
C860        C  0.16770465  0.47309957  0.42124894    -0.12670
C861        C  0.43684671  0.18350535  0.45445734    -0.14270
C862        C  0.43109553  0.20552275  0.46241396    -0.29450
H863        H  0.41639092  0.15633118  0.45306027     0.14750
H864        H  0.45111391  0.23306698  0.46306954     0.15320
C865        C  0.04498523  0.09544696  0.36306363    -0.14270
C866        C  0.02411959  0.10319877  0.37069679    -0.29450
H867        H  0.07274444  0.11454139  0.36224763     0.14750
H868        H  0.99668681  0.08364040  0.37214733     0.15320
C869        C  0.10872514  0.23554443  0.35307908    -0.14270
C870        C  0.08466015  0.23263553  0.36255097    -0.29450
H871        H  0.11673897  0.21610482  0.35270342     0.14750
H872        H  0.07858674  0.25345935  0.36347273     0.15320
C873        C  0.01422027  0.18915614  0.41886038    -0.11110
C874        C  0.02174579  0.18272297  0.40738365    -0.12670
C875        C  0.30299810  0.22176500  0.45759349    -0.14270
C876        C  0.27225409  0.22045037  0.45684507    -0.29450
H877        H  0.32501598  0.24129354  0.45149160     0.14750
H878        H  0.25125737  0.20280304  0.46386574     0.15320
C879        C  0.38556370  0.40722422  0.37070287    -0.14270
C880        C  0.39312869  0.43557647  0.36296396    -0.29450
H881        H  0.40495667  0.39937297  0.37199485     0.14750
H882        H  0.37436981  0.44443180  0.36239653     0.15320
C883        C  0.25560025  0.34572582  0.36466367    -0.14270
C884        C  0.25427480  0.36883260  0.35588809    -0.29450
H885        H  0.23385963  0.31889640  0.36491836     0.14750
H886        H  0.27472998  0.39621985  0.35620794     0.15320
C887        C  0.29759483  0.30908702  0.41862153    -0.11110
C888        C  0.30608502  0.32399489  0.40736883    -0.12670
C889        C  0.06137676  0.27171769  0.47492928    -0.14270
C890        C  0.06057974  0.24984960  0.46472937    -0.29450
H891        H  0.04077827  0.27806937  0.47566886     0.14750
H892        H  0.08270490  0.24584895  0.46351116     0.15320
C893        C  0.18056791  0.40996256  0.46743238    -0.14270
C894        C  0.21089546  0.43775986  0.46351469    -0.29450
H895        H  0.15652110  0.40497991  0.46232376     0.14750
H896        H  0.23452443  0.44434595  0.46939861     0.15320
C897        C  0.23082208  0.30478352  0.46135040    -0.14270
C898        C  0.20432727  0.28472064  0.47013727    -0.29450
H899        H  0.24102183  0.33283365  0.46094653     0.14750
H900        H  0.19288797  0.25648953  0.47005409     0.15320
C901        C  0.21542448  0.43326190  0.52645739    -0.14270
C902        C  0.24339530  0.44091863  0.53458280    -0.29450
H903        H  0.20679425  0.45213901  0.52553067     0.14750
H904        H  0.25060181  0.42116221  0.53627603     0.15320
C905        C  0.05812741  0.30642094  0.53861784    -0.14270
C906        C  0.06704766  0.28521684  0.53198505    -0.29450
H907        H  0.07672286  0.33434869  0.53947301     0.14750
H908        H  0.04867041  0.25717393  0.53165093     0.15320
C909        C  0.19825074  0.26083725  0.53611513    -0.14270
C910        C  0.21626726  0.28780515  0.52720655    -0.29450
H911        H  0.17140884  0.25298458  0.53881483     0.14750
H912        H  0.24364389  0.29702294  0.52502373     0.15320
O913        O  0.17301015  0.89379212  0.51170711    -0.79640
C914        C  0.20337770  0.80408867  0.48246708     0.99720
O915        O  0.21570771  0.83652011  0.48421053    -0.68760
O916        O  0.21600063  0.89501046  0.48944434    -0.72350
Al917      Al  0.21211117  0.85773544  0.50110216     1.48980
C918        C  0.19408627  0.89735250  0.48170926     0.94970
O919        O  0.10310947  0.81869847  0.48902791    -0.78570
O920        O  0.10465821  0.77941406  0.51225510    -0.72130
Al921      Al  0.14082618  0.85377680  0.50049319     1.90120
O922        O  0.12020001  0.78134038  0.48382328    -0.71190
O923        O  0.16548451  0.78518477  0.51833765    -0.71050
O924        O  0.17826391  0.78213098  0.48996444    -0.76710
O925        O  0.21875029  0.82600642  0.51263713    -0.74910
O926        O  0.16562744  0.83246752  0.50094416    -1.11040
O927        O  0.21345250  0.88193328  0.51802603    -0.70240
C928        C  0.19936307  0.90046373  0.51915141     1.00480
C929        C  0.10043746  0.79354054  0.48158905     0.96880
Al930      Al  0.14392644  0.78590782  0.50111522     1.55560
O931        O  0.16169575  0.87687428  0.48336260    -0.74860
C932        C  0.19819013  0.79947997  0.51982989     1.01040
C933        C  0.09894348  0.80034992  0.51935915     0.95920
O934        O  0.11734991  0.83294861  0.51757690    -0.80180
C935        C  0.35244652  0.89226552  0.37442618     0.05290
C936        C  0.34859379  0.87568339  0.38741944    -0.10860
C937        C  0.31514935  0.85377692  0.39296147     0.02790
C938        C  0.28540523  0.84767888  0.38542144    -0.09390
C939        C  0.28892479  0.86407488  0.37241645     0.05280
C940        C  0.32250711  0.88629607  0.36697085    -0.08810
H941        H  0.37151666  0.87986141  0.39319585     0.10880
H942        H  0.25954707  0.83009391  0.38964127     0.08400
H943        H  0.32527513  0.89718589  0.35649197     0.08250
C944        C  0.29514139  0.77086422  0.44993273     0.05290
C945        C  0.27356444  0.77851341  0.45837209    -0.10860
C946        C  0.26332039  0.80193118  0.45362405     0.02790
C947        C  0.27447395  0.81734264  0.44031964    -0.09390
C948        C  0.29542547  0.80935701  0.43179751     0.05280
C949        C  0.30624586  0.78661742  0.43665817    -0.08810
H950        H  0.26651718  0.76785387  0.46895657     0.10880
H951        H  0.26679374  0.83555164  0.43658302     0.08400
H952        H  0.32309716  0.78108648  0.43013005     0.08250
C953        C  0.04410658  0.67820453  0.39133126     0.05290
C954        C  0.06033263  0.70732852  0.38230989    -0.10860
C955        C  0.07590298  0.70565752  0.36952752     0.02790
C956        C  0.07460987  0.67432273  0.36577291    -0.09390
C957        C  0.05812282  0.64488614  0.37441219     0.05280
C958        C  0.04266177  0.64674011  0.38727264    -0.08810
H959        H  0.06117826  0.73143146  0.38531044     0.10880
H960        H  0.08478815  0.67190075  0.35562689     0.08400
H961        H  0.02989224  0.62407073  0.39407206     0.08250
C962        C  0.01542468  0.69945219  0.42993491     0.05290
C963        C  0.47923837  0.69254200  0.43443515    -0.10860
C964        C  0.47461812  0.70574627  0.44744038     0.02790
C965        C  0.50419224  0.72785359  0.45572085    -0.09390
C966        C  0.03985193  0.73338112  0.45174393     0.05280
C967        C  0.04426835  0.72056474  0.43869106    -0.08810
H968        H  0.45664866  0.67504989  0.42805290     0.10880
H969        H  0.50060663  0.73608431  0.46613158     0.08400
H970        H  0.07028881  0.72706893  0.43533354     0.08250
C971        C  0.23287132  0.52601597  0.44966178     0.05290
C972        C  0.22058225  0.99311699  0.45768104    -0.10860
C973        C  0.19603184  0.95912328  0.45301193     0.02790
C974        C  0.17937214  0.95460788  0.43994036    -0.09390
C975        C  0.18718703  0.98353253  0.43154691     0.05280
C976        C  0.21036276  0.51713055  0.43797430    -0.08810
H977        H  0.23208191  0.99691819  0.46812976     0.10880
H978        H  0.16024310  0.92848245  0.43628990     0.08400
H979        H  0.20955804  0.53755530  0.43205253     0.08250
C980        C  0.13833024  0.95749537  0.39318874     0.05290
C981        C  0.14463554  0.93496266  0.38482540    -0.10860
C982        C  0.12759817  0.92234194  0.37175345     0.02790
C983        C  0.10392623  0.93248179  0.36718885    -0.09390
C984        C  0.09781344  0.95548680  0.37546842     0.05280
C985        C  0.11532123  0.96810220  0.38843147    -0.08810
H986        H  0.16326071  0.92765752  0.38840094     0.10880
H987        H  0.09219713  0.92461047  0.35676086     0.08400
H988        H  0.11116557  0.98625504  0.39475564     0.08250
O989        O  0.23301243  0.85068944  0.31357429    -0.79640
C990        C  0.13328597  0.86709941  0.34127042     0.99720
O991        O  0.16607861  0.88170416  0.34020199    -0.68760
O992        O  0.22733656  0.88763178  0.33609029    -0.72350
Al993      Al  0.19054097  0.88291158  0.32368766     1.48980
C994        C  0.22931201  0.86534126  0.34369647     0.94970
O995        O  0.15737116  0.77378559  0.33253440    -0.78570
O996        O  0.12111145  0.77614635  0.30806115    -0.72130
Al997      Al  0.19236365  0.81478312  0.32295986     1.90120
O998        O  0.11624335  0.78590519  0.33723096    -0.71190
O999        O  0.12206652  0.83579643  0.30402040    -0.71050
O1000       O  0.11334331  0.84268016  0.33278634    -0.76710
O1001       O  0.15872982  0.88881460  0.31185475    -0.74910
O1002       O  0.16814872  0.83655537  0.32237400    -1.11040
O1003       O  0.21744022  0.88841007  0.30721306    -0.70240
C1004       C  0.23778901  0.87637695  0.30619983     1.00480
C1005       C  0.13098709  0.76857852  0.33964204     0.96880
Al1006     Al  0.12186724  0.81200483  0.32062873     1.55560
O1007       O  0.21039102  0.83307899  0.34110177    -0.74860
C1008       C  0.13417112  0.86838921  0.30365654     1.01040
C1009       C  0.14553210  0.77501295  0.30137176     0.95920
O1010       O  0.17693266  0.79472875  0.30488975    -0.80180
C1011       C  0.34941758  0.98163053  0.26460251     0.05290
C1012       C  0.37917542  0.98785541  0.27215726    -0.10860
C1013       C  0.37568565  0.97136874  0.28513075     0.02790
C1014       C  0.34209108  0.94891525  0.29053598    -0.09390
C1015       C  0.31213529  0.94288124  0.28306018     0.05280
C1016       C  0.31598077  0.95955406  0.27009805    -0.08810
H1017       H  0.40502533  0.00554178  0.26795397     0.10880
H1018       H  0.33931134  0.93782077  0.30097523     0.08400
H1019       H  0.29304977  0.95526144  0.26429494     0.08250
C1020       C  0.36739561  0.52383128  0.22768363     0.05290
C1021       C  0.38889995  0.51633014  0.21924804    -0.10860
C1022       C  0.40105768  0.53251191  0.20609691     0.02790
C1023       C  0.39129150  0.55636284  0.20139119    -0.09390
C1024       C  0.36917317  0.56369709  0.20964412     0.05280
C1025       C  0.35708218  0.54707517  0.22278645    -0.08810
H1026       H  0.39614465  0.49774334  0.22291784     0.10880
H1027       H  0.39903035  0.56750306  0.19090995     0.08400
H1028       H  0.33974378  0.55221986  0.22916036     0.08250
O1029       O  0.44947816  0.95152488  0.13974771    -0.79640
C1030       C  0.06419958  0.54006387  0.17657190     0.99720
O1031       O  0.06100748  0.51478882  0.16905194    -0.68760
O1032       O  0.50231288  0.95496668  0.17375531    -0.72350
Al1033     Al  0.02127538  0.97666855  0.15532382     1.48980
C1034       C  0.46991772  0.93514874  0.17572924     0.94970
O1035       O  0.44917143  0.49768896  0.17559636    -0.78570
O1036       O  0.49785105  0.54848678  0.14095318    -0.72130
Al1037     Al  0.45203321  0.97581319  0.15678784     1.90120
O1038       O  0.48624170  0.55191249  0.16953365    -0.71190
O1039       O  0.05917683  0.55442124  0.14607322    -0.71050
O1040       O  0.04445899  0.55242463  0.17459227    -0.76710
O1041       O  0.04480288  0.99822271  0.13824948    -0.74910
O1042       O  0.49855459  0.00034248  0.15666358    -1.11040
O1043       O  0.48959038  0.93871862  0.14543623    -0.70240
C1044       C  0.46291770  0.93248777  0.13832721     1.00480
C1045       C  0.46139638  0.53013765  0.17722252     0.96880
Al1046     Al  0.02025815  0.54818933  0.15745832     1.55560
O1047       O  0.44791952  0.93815299  0.16830342    -0.74860
C1048       C  0.06462353  0.53345399  0.13884302     1.01040
C1049       C  0.46509854  0.53422312  0.13965639     0.95920
O1050       O  0.44479030  0.50808950  0.14712763    -0.80180
C1051       C  0.12091819  0.65306028  0.26698292     0.05290
C1052       C  0.10479048  0.62381282  0.27595007    -0.10860
C1053       C  0.08898106  0.62519565  0.28871240     0.02790
C1054       C  0.09000230  0.65638483  0.29250705    -0.09390
C1055       C  0.10636908  0.68592413  0.28391541     0.05280
C1056       C  0.12200729  0.68432919  0.27106796    -0.08810
H1057       H  0.10416736  0.59983823  0.27291505     0.10880
H1058       H  0.07964005  0.65858189  0.30264435     0.08400
H1059       H  0.13464258  0.70705019  0.26429035     0.08250
C1060       C  0.15014385  0.63319001  0.22824554     0.05290
C1061       C  0.12133041  0.61219722  0.21947018    -0.10860
C1062       C  0.12577728  0.59983194  0.20631571     0.02790
C1063       C  0.15966984  0.60888599  0.20193953    -0.09390
C1064       C  0.18904977  0.63041126  0.21043689     0.05280
C1065       C  0.18409187  0.64276533  0.22359516    -0.08810
H1066       H  0.09527892  0.60543183  0.22289535     0.10880
H1067       H  0.16348773  0.60107382  0.19147589     0.08400
H1068       H  0.20651135  0.65966424  0.23017231     0.08250
C1069       C  0.02520197  0.87231110  0.26366523     0.05290
C1070       C  0.04962040  0.86322715  0.26814974    -0.10860
C1071       C  0.06613082  0.87493351  0.28136367     0.02790
C1072       C  0.05752536  0.89539848  0.29012464    -0.09390
C1073       C  0.03248166  0.90394185  0.28578802     0.05280
C1074       C  0.01637647  0.89217634  0.27253568    -0.08810
H1075       H  0.05576082  0.84711659  0.26139431     0.10880
H1076       H  0.06869747  0.90276229  0.30066438     0.08400
H1077       H  0.99691035  0.89849206  0.26911802     0.08250
C1078       C  0.43654121  0.81033604  0.20829075     0.05290
C1079       C  0.45404429  0.81555429  0.22125036    -0.10860
C1080       C  0.47794754  0.84955519  0.22599731     0.02790
C1081       C  0.48526233  0.87837050  0.21760806    -0.09390
C1082       C  0.46820079  0.87364618  0.20460354     0.05280
C1083       C  0.44362558  0.83953282  0.20004127    -0.08810
H1084       H  0.44904893  0.79323701  0.22761108     0.10880
H1085       H  0.50439181  0.90456155  0.22118836     0.08400
H1086       H  0.43169677  0.83549896  0.18966943     0.08250
O1087       O  0.44629417  0.94475375  0.34979441    -0.79640
C1088       C  0.03298491  0.56177399  0.31833212     0.99720
O1089       O  0.00627635  0.55651722  0.32518971    -0.68760
O1090       O  0.45551973  0.00140265  0.31600621    -0.72350
Al1091     Al  0.46811896  0.51561643  0.33664697     1.48980
C1092       C  0.43583953  0.96922075  0.31340850     0.94970
O1093       O  0.99596836  0.94920499  0.31703591    -0.78570
O1094       O  0.04652355  0.99790648  0.35178092    -0.72130
Al1095     Al  0.47328816  0.94995087  0.33341232     1.90120
O1096       O  0.05005898  0.98686731  0.32324125    -0.71190
O1097       O  0.04257683  0.55447342  0.35013968    -0.71050
O1098       O  0.04771605  0.54455495  0.32100118    -0.76710
O1099       O  0.48437685  0.53656179  0.35454690    -0.74910
O1100       O  0.49650837  0.99628801  0.33496410    -1.11040
O1101       O  0.43188162  0.98339617  0.34345920    -0.70240
C1102       C  0.42656338  0.95749980  0.35084363     1.00480
C1103       C  0.02844144  0.96195596  0.31543480     0.96880
Al1104     Al  0.04159966  0.51839015  0.33767374     1.55560
O1105       O  0.43720867  0.94650340  0.32094836    -0.74860
C1106       C  0.01821076  0.55611776  0.35662565     1.01040
C1107       C  0.03205891  0.96511390  0.35297528     0.95920
O1108       O  0.00584852  0.94476532  0.34547011    -0.80180
O1109       O  0.39168969  0.67455162  0.97883633    -0.79640
C1110       C  0.30044993  0.70126833  0.00881106     0.99720
O1111       O  0.33292027  0.71403959  0.00722894    -0.68760
O1112       O  0.39204390  0.71599976  0.00184861    -0.72350
Al1113     Al  0.35439923  0.71183643  0.99021925     1.48980
C1114       C  0.39489055  0.69400396  0.00929444     0.94970
O1115       O  0.31763543  0.60275645  0.00085352    -0.78570
O1116       O  0.27769496  0.60411295  0.97791055    -0.72130
Al1117     Al  0.35214404  0.64127334  0.98979239     1.90120
O1118       O  0.27957840  0.61873296  0.00639149    -0.71190
O1119       O  0.28243657  0.66476515  0.97239476    -0.71050
O1120       O  0.27885367  0.67643623  0.00095289    -0.76710
O1121       O  0.32217866  0.71816170  0.97879262    -0.74910
O1122       O  0.33001804  0.66531863  0.98977028    -1.11040
O1123       O  0.37861415  0.71455629  0.97326245    -0.70240
C1124       C  0.39750841  0.70100972  0.97172323     1.00480
C1125       C  0.29224807  0.59922727  0.00827832     0.96880
Al1126     Al  0.28349782  0.64286401  0.98940521     1.55560
O1127       O  0.37515117  0.66161118  0.00714822    -0.74860
C1128       C  0.29628328  0.69748556  0.97119004     1.01040
C1129       C  0.29883527  0.59888074  0.97076650     0.95920
O1130       O  0.33141321  0.61816204  0.97247818    -0.80180
C1131       C  0.26684224  0.79269269  0.04149119     0.05290
C1132       C  0.27424976  0.77060509  0.03323363    -0.10860
C1133       C  0.29762114  0.76043037  0.03812745     0.02790
C1134       C  0.31330413  0.77221466  0.05144512    -0.09390
C1135       C  0.30568787  0.79375504  0.05983291     0.05280
C1136       C  0.28290819  0.80444504  0.05478591    -0.08810
H1137       H  0.26354726  0.76321054  0.02262203     0.10880
H1138       H  0.33158544  0.76470395  0.05526851     0.08400
H1139       H  0.27768939  0.82179338  0.06116064     0.08250
C1140       C  0.39401012  0.85549630  0.11631959     0.05290
C1141       C  0.37650152  0.85051056  0.10339690    -0.10860
C1142       C  0.35252781  0.81664940  0.09858853     0.02790
C1143       C  0.34512724  0.78764947  0.10688146    -0.09390
C1144       C  0.36220986  0.79211434  0.11987450     0.05280
C1145       C  0.38693915  0.82616683  0.12448395    -0.08810
H1146       H  0.38151432  0.87294788  0.09711131     0.10880
H1147       H  0.32589518  0.76154876  0.10324906     0.08400
H1148       H  0.39890509  0.83006431  0.13484021     0.08250
C1149       C  0.19995380  0.51277509  0.05918228     0.05290
C1150       C  0.22049175  0.54166021  0.05055287    -0.10860
C1151       C  0.23285066  0.53725045  0.03744316     0.02790
C1152       C  0.22580519  0.00323583  0.03282395    -0.09390
C1153       C  0.20476194  0.97391363  0.04128991     0.05280
C1154       C  0.19290816  0.97866947  0.05446848    -0.08810
H1155       H  0.22689155  0.56763833  0.05405082     0.10880
H1156       H  0.23335955  0.99944690  0.02231128     0.08400
H1157       H  0.17640574  0.95620998  0.06100476     0.08250
C1158       C  0.17681407  0.53680051  0.09803545     0.05290
C1159       C  0.14316252  0.52751522  0.10271392    -0.10860
C1160       C  0.13862193  0.53979237  0.11586329     0.02790
C1161       C  0.16806433  0.56104043  0.12435795    -0.09390
C1162       C  0.20179921  0.56982975  0.11987612     0.05280
C1163       C  0.20591378  0.55749254  0.10668092    -0.08810
H1164       H  0.12059284  0.51077239  0.09616975     0.10880
H1165       H  0.16439669  0.56875664  0.13486565     0.08400
H1166       H  0.23180413  0.56394747  0.10314812     0.08250
C1167       C  0.02573759  0.72871232  0.04166887     0.05290
C1168       C  0.49041178  0.72063618  0.03363041    -0.10860
C1169       C  0.45661691  0.69606535  0.03831235     0.02790
C1170       C  0.45262112  0.67935709  0.05131459    -0.09390
C1171       C  0.48187775  0.68710343  0.05961848     0.05280
C1172       C  0.02039603  0.71249940  0.05493066    -0.08810
H1173       H  0.49381816  0.73209369  0.02323291     0.10880
H1174       H  0.42665114  0.66020325  0.05496578     0.08400
H1175       H  0.04262944  0.71839722  0.06158575     0.08250
C1176       C  0.45562511  0.59944441  0.11634772     0.05290
C1177       C  0.46789450  0.61608962  0.10322183    -0.10860
C1178       C  0.45761447  0.63927858  0.09823526     0.02790
C1179       C  0.43582933  0.64664288  0.10658575    -0.09390
C1180       C  0.42346426  0.63044301  0.11975254     0.05280
C1181       C  0.43323734  0.60661628  0.12450339    -0.08810
H1182       H  0.48550495  0.61112130  0.09695045     0.10880
H1183       H  0.42869513  0.66527723  0.10287679     0.08400
H1184       H  0.42546802  0.59553590  0.13498940     0.08250
O1185       O  0.34043458  0.72780916  0.17923596    -0.79640
C1186       C  0.36484898  0.63452258  0.14919519     0.99720
O1187       O  0.37814021  0.66709845  0.15088222    -0.68760
O1188       O  0.38128347  0.72697338  0.15634050    -0.72350
Al1189     Al  0.37647126  0.68914263  0.16794483     1.48980
C1190       C  0.35954326  0.73028847  0.14887649     0.94970
O1191       O  0.26764920  0.65412672  0.15703098    -0.78570
O1192       O  0.26838927  0.61418611  0.18020917    -0.72130
Al1193     Al  0.30653915  0.68835636  0.16822453     1.90120
O1194       O  0.28255678  0.61519591  0.15158536    -0.71190
O1195       O  0.32869792  0.61734634  0.18562191    -0.71050
O1196       O  0.33975709  0.61330506  0.15695642    -0.76710
O1197       O  0.38217066  0.65651357  0.17936496    -0.74910
O1198       O  0.32990969  0.66545958  0.16832678    -1.11040
O1199       O  0.37995899  0.71408659  0.18491137    -0.70240
C1200       C  0.36702359  0.73359080  0.18632313     1.00480
C1201       C  0.26366938  0.62849103  0.14956687     0.96880
Al1202     Al  0.30673717  0.61889446  0.16860841     1.55560
O1203       O  0.32711676  0.71091360  0.15090671    -0.74860
C1204       C  0.36136304  0.63060397  0.18682426     1.01040
C1205       C  0.26347990  0.63573588  0.18733681     0.95920
O1206       O  0.28300005  0.66824359  0.18554805    -0.80180
O1207       O  0.11870077  0.78282123  0.01671750    -0.79640
C1208       C  0.20338859  0.89818351  0.98111682     0.99720
O1209       O  0.17803030  0.89444602  0.98865125    -0.68760
O1210       O  0.12019218  0.83518473  0.98295910    -0.72350
Al1211     Al  0.14413319  0.85602751  0.00007603     1.48980
C1212       C  0.10045164  0.80274876  0.98093107     0.94970
O1213       O  0.16326032  0.78343101  0.98231421    -0.78570
O1214       O  0.21483486  0.83335807  0.01690398    -0.72130
Al1215     Al  0.14230715  0.78563720  0.99952230     1.90120
O1216       O  0.21744949  0.82131884  0.98833819    -0.71190
O1217       O  0.21916715  0.89380053  0.01136352    -0.71050
O1218       O  0.21621581  0.87877711  0.98290767    -0.76710
O1219       O  0.16567894  0.87968399  0.01720299    -0.74910
O1220       O  0.16647237  0.83221237  0.99986458    -1.11040
O1221       O  0.10530769  0.82277340  0.01145885    -0.70240
C1222       C  0.09996646  0.79643919  0.01858052     1.00480
C1223       C  0.19572678  0.79631178  0.98059068     0.96880
Al1224     Al  0.21302997  0.85492263  0.99991027     1.55560
O1225       O  0.10395879  0.78095908  0.98823060    -0.74860
C1226       C  0.19830302  0.89905533  0.01868336     1.01040
C1227       C  0.20111467  0.80066443  0.01818004     0.95920
O1228       O  0.17514377  0.77978989  0.01066456    -0.80180
C1229       C  0.09700673  0.64226458  0.87441390     0.05290
C1230       C  0.11501439  0.64633113  0.88714775    -0.10860
C1231       C  0.14073029  0.67968003  0.89180895     0.02790
C1232       C  0.14916128  0.70908505  0.88363273    -0.09390
C1233       C  0.13147733  0.70556993  0.87090853     0.05280
C1234       C  0.10522800  0.67206633  0.86636624    -0.08810
H1235       H  0.10926497  0.62353506  0.89334045     0.10880
H1236       H  0.16958947  0.73477710  0.88716644     0.08400
H1237       H  0.09302904  0.66894290  0.85611307     0.08250
C1238       C  0.23026300  0.70532135  0.94796191     0.05290
C1239       C  0.21354152  0.69284678  0.93481859    -0.10860
C1240       C  0.19003692  0.70275304  0.92992523     0.02790
C1241       C  0.18240097  0.72428292  0.93829527    -0.09390
C1242       C  0.19869411  0.73679147  0.95145684     0.05280
C1243       C  0.22282278  0.72742914  0.95620566    -0.08810
H1244       H  0.21871351  0.67543441  0.92846544     0.10880
H1245       H  0.16355085  0.73116310  0.93459089     0.08400
H1246       H  0.23400619  0.73535759  0.96672235     0.08250
C1247       C  0.32205753  0.96396090  0.89182767     0.05290
C1248       C  0.29234997  0.94398518  0.88342107    -0.10860
C1249       C  0.29525928  0.93166485  0.87004922     0.02790
C1250       C  0.32846422  0.93973667  0.86508516    -0.09390
C1251       C  0.35861519  0.96041707  0.87330528     0.05280
C1252       C  0.35523897  0.97268939  0.88668471    -0.08810
H1253       H  0.26683994  0.93793275  0.88731174     0.10880
H1254       H  0.33115197  0.93184509  0.85446375     0.08400
H1255       H  0.37832044  0.98893317  0.89305103     0.08250
C1256       C  0.29834781  0.98638032  0.93087188     0.05290
C1257       C  0.30674166  0.51955444  0.93559123    -0.10860
C1258       C  0.29359819  0.52410530  0.94847750     0.02790
C1259       C  0.27199070  0.49469020  0.95681044    -0.09390
C1260       C  0.26359502  0.96111430  0.95219371     0.05280
C1261       C  0.27687069  0.95715865  0.93921120    -0.08810
H1262       H  0.32369656  0.54211878  0.92918300     0.10880
H1263       H  0.26356844  0.49842804  0.96714664     0.08400
H1264       H  0.27052702  0.93127551  0.93560279     0.08250
C1265       C  0.03788634  0.90043747  0.87561995     0.05290
C1266       C  0.02583492  0.88433953  0.88880673    -0.10860
C1267       C  0.03565830  0.86084032  0.89373433     0.02790
C1268       C  0.05660475  0.85252975  0.88535947    -0.09390
C1269       C  0.06867519  0.86823146  0.87215569     0.05280
C1270       C  0.05943298  0.89237688  0.86736124    -0.08810
H1271       H  0.00884401  0.89000947  0.89517034     0.10880
H1272       H  0.06339494  0.83365559  0.88909756     0.08400
H1273       H  0.06703565  0.90311974  0.85681251     0.08250
C1274       C  0.47256172  0.76898245  0.94915156     0.05290
C1275       C  0.00370610  0.77517465  0.95675587    -0.10860
C1276       C  0.03755786  0.80085509  0.95249992     0.02790
C1277       C  0.04168970  0.81916806  0.93993703    -0.09390
C1278       C  0.01256875  0.81208205  0.93173052     0.05280
C1279       C  0.47694848  0.78628724  0.93627188    -0.08810
H1280       H  0.49887577  0.76449916  0.96750998     0.10880
H1281       H  0.06763631  0.83909778  0.93656572     0.08400
H1282       H  0.45426317  0.78120231  0.93008361     0.08250
O1283       O  0.11188124  0.78464663  0.80727912    -0.79640
C1284       C  0.22956775  0.87182329  0.84165826     0.99720
O1285       O  0.22514971  0.84613198  0.83415603    -0.68760
O1286       O  0.16634358  0.78881917  0.84080306    -0.72350
Al1287     Al  0.18586140  0.81153355  0.82340188     1.48980
C1288       C  0.13397401  0.76921276  0.84299012     0.94970
O1289       O  0.11361911  0.83140743  0.84126725    -0.78570
O1290       O  0.16168296  0.88147328  0.80676067    -0.72130
Al1291     Al  0.11533217  0.80949736  0.82423222     1.90120
O1292       O  0.15199360  0.88536046  0.83538681    -0.71190
O1293       O  0.22151306  0.88559773  0.81145970    -0.71050
O1294       O  0.20995593  0.88451940  0.84017899    -0.76710
O1295       O  0.20783073  0.83183387  0.80594399    -0.74910
O1296       O  0.16184794  0.83379190  0.82368972    -1.11040
O1297       O  0.15216176  0.77183143  0.81268118    -0.70240
C1298       C  0.12536302  0.76567655  0.80572696     1.00480
C1299       C  0.12700361  0.86395482  0.84306563     0.96880
Al1300     Al  0.18441649  0.88033356  0.82346542     1.55560
O1301       O  0.11176880  0.77233999  0.83578582    -0.74860
C1302       C  0.22579761  0.86438587  0.80390624     1.01040
C1303       C  0.12903023  0.86734483  0.80539454     0.95920
O1304       O  0.10850902  0.84138060  0.81285934    -0.80180
C1305       C  0.43236042  0.62867316  0.70901474     0.05290
C1306       C  0.44849564  0.64046080  0.72228456    -0.10860
C1307       C  0.47180721  0.63033899  0.72717084     0.02790
C1308       C  0.47994831  0.60939810  0.71867373    -0.09390
C1309       C  0.46422890  0.59758591  0.70538259     0.05280
C1310       C  0.44019191  0.60706257  0.70062746    -0.08810
H1311       H  0.44295837  0.65744489  0.72875603     0.10880
H1312       H  0.49867973  0.60237280  0.72239442     0.08400
H1313       H  0.42933145  0.59956393  0.69004178     0.08250
C1314       C  0.05731990  0.68890398  0.78359888     0.05290
C1315       C  0.03908635  0.68443316  0.77094944    -0.10860
C1316       C  0.01677211  0.65080174  0.76556589     0.02790
C1317       C  0.01182510  0.62141517  0.77295714    -0.09390
C1318       C  0.02965038  0.62538046  0.78569677     0.05280
C1319       C  0.05260789  0.65930305  0.79094709    -0.08810
H1320       H  0.04234391  0.70708996  0.76529584     0.10880
H1321       H  0.99385876  0.59539806  0.76883912     0.08400
H1322       H  0.06503684  0.66271630  0.80116803     0.08250
O1323       O  0.05869590  0.51161485  0.64637783    -0.79640
C1324       C  0.46791115  0.53846248  0.67630325     0.99720
O1325       O  0.50039841  0.55162486  0.67456245    -0.68760
O1326       O  0.05906751  0.55356104  0.66923434    -0.72350
Al1327     Al  0.02095135  0.54859352  0.65760748     1.48980
C1328       C  0.06252478  0.53188579  0.67666644     0.94970
O1329       O  0.48510550  0.93945334  0.66842428    -0.78570
O1330       O  0.44455971  0.94035519  0.64569780    -0.72130
Al1331     Al  0.02151925  0.97984735  0.65668363     1.90120
O1332       O  0.44677625  0.95487489  0.67421584    -0.71190
O1333       O  0.44884763  0.50099497  0.64018640    -0.71050
O1334       O  0.44632005  0.51313019  0.66867578    -0.76710
O1335       O  0.48875676  0.55473957  0.64612110    -0.74910
O1336       O  0.49766995  0.50268605  0.65722035    -1.11040
O1337       O  0.04518816  0.55115066  0.64060006    -0.70240
C1338       C  0.06443453  0.53795045  0.63920068     1.00480
C1339       C  0.45984534  0.93567385  0.67600457     0.96880
Al1340     Al  0.45002806  0.97887311  0.65721142     1.55560
O1341       O  0.04289880  0.49940009  0.67469347    -0.74860
C1342       C  0.46236731  0.53365008  0.63881857     1.01040
C1343       C  0.46574795  0.93542154  0.63845209     0.95920
O1344       O  0.49833412  0.95502677  0.64003464    -0.80180
C1345       C  0.34592658  0.87715741  0.76592138     0.05290
C1346       C  0.31087415  0.86286511  0.77002656    -0.10860
C1347       C  0.30246205  0.87601298  0.78203755     0.02790
C1348       C  0.32941392  0.90295875  0.79009922    -0.09390
C1349       C  0.36444810  0.91645939  0.78647327     0.05280
C1350       C  0.37271617  0.90374475  0.77419119    -0.08810
H1351       H  0.29021067  0.84183652  0.76383994     0.10880
H1352       H  0.32328014  0.91200401  0.79982437     0.08400
H1353       H  0.39977915  0.91441062  0.77107874     0.08250
C1354       C  0.37286509  0.81126209  0.71010683     0.05290
C1355       C  0.36211580  0.81664092  0.72347527    -0.10860
C1356       C  0.37235597  0.85069903  0.72817235     0.02790
C1357       C  0.39233718  0.87927595  0.71932010    -0.09390
C1358       C  0.40308176  0.87437011  0.70592566     0.05280
C1359       C  0.39350485  0.84030576  0.70143592    -0.08810
H1360       H  0.34573691  0.79442859  0.73014434     0.10880
H1361       H  0.39934516  0.90542457  0.72282669     0.08400
H1362       H  0.40009518  0.83608391  0.69080936     0.08250
C1363       C  0.12244947  0.93346611  0.78201314     0.05290
C1364       C  0.10111152  0.94175953  0.79028095    -0.10860
C1365       C  0.09261000  0.96655493  0.78563581     0.02790
C1366       C  0.10539273  0.98285848  0.77256736    -0.09390
C1367       C  0.12625284  0.97443822  0.76416913     0.05280
C1368       C  0.13519882  0.95014292  0.76895892    -0.08810
H1369       H  0.09310013  0.93064523  0.80075200     0.10880
H1370       H  0.09917743  0.00223267  0.76894456     0.08400
H1371       H  0.15207760  0.94432001  0.76259450     0.08250
C1372       C  0.18887296  0.56500237  0.70838459     0.05290
C1373       C  0.15923596  0.55846401  0.70047749    -0.10860
C1374       C  0.12538051  0.53382423  0.70511768     0.02790
C1375       C  0.12140180  0.51620451  0.71786683    -0.09390
C1376       C  0.15068709  0.52298603  0.72590651     0.05280
C1377       C  0.18437241  0.54695040  0.72107795    -0.08810
H1378       H  0.16268826  0.57075466  0.69026175     0.10880
H1379       H  0.09543087  0.49699162  0.72150066     0.08400
H1380       H  0.20703080  0.55151127  0.72715912     0.08250
O1381       O  0.00529733  0.55949486  0.84301917    -0.79640
C1382       C  0.03385239  0.97022004  0.81473654     0.99720
O1383       O  0.04679848  0.00272308  0.81649144    -0.68760
O1384       O  0.05138516  0.56188368  0.82201687    -0.72350
Al1385     Al  0.04703293  0.52489612  0.83406189     1.48980
C1386       C  0.03001077  0.56315665  0.81359463     0.94970
O1387       O  0.44114633  0.98186202  0.81880019    -0.78570
O1388       O  0.44003167  0.94500069  0.84400357    -0.72130
Al1389     Al  0.47724912  0.52043624  0.83163076     1.90120
O1390       O  0.46082516  0.94550623  0.81642983    -0.71190
O1391       O  0.99767517  0.95216249  0.85099191    -0.71050
O1392       O  0.51821313  0.94917886  0.82442994    -0.76710
O1393       O  0.05396450  0.49420778  0.84625849    -0.74910
O1394       O  0.50189336  0.99858820  0.83313085    -1.11040
O1395       O  0.04582137  0.54864547  0.85050989    -0.70240
C1396       C  0.03104557  0.56661395  0.85105224     1.00480
C1397       C  0.44164686  0.95688459  0.81226809     0.96880
Al1398     Al  0.48167105  0.95239123  0.83425964     1.55560
O1399       O  0.99781468  0.54129271  0.81450181    -0.74860
C1400       C  0.03036780  0.96615267  0.85236336     1.01040
C1401       C  0.43238032  0.96580692  0.85008887     0.95920
O1402       O  0.45007856  0.99817165  0.84778360    -0.80180
O1403       O  0.28537803  0.62192154  0.47332971    -0.79640
C1404       C  0.40086128  0.70571155  0.50917097     0.99720
O1405       O  0.39685662  0.68017435  0.50164912    -0.68760
O1406       O  0.33750138  0.62279638  0.50719219    -0.72350
Al1407     Al  0.35854891  0.64670038  0.49011816     1.48980
C1408       C  0.30503370  0.60338716  0.50908383     0.94970
O1409       O  0.28656800  0.66661151  0.50791441    -0.78570
O1410       O  0.33585268  0.71757699  0.47338311    -0.72130
Al1411     Al  0.28840584  0.64549574  0.49060450     1.90120
O1412       O  0.32469448  0.72073269  0.50207018    -0.71190
O1413       O  0.39639375  0.72148960  0.47853716    -0.71050
O1414       O  0.38222105  0.71929233  0.50717950    -0.76710
O1415       O  0.38240308  0.66776352  0.47302912    -0.74910
O1416       O  0.33501465  0.66939291  0.49030123    -1.11040
O1417       O  0.32548970  0.60859753  0.47854505    -0.70240
C1418       C  0.29958376  0.60378374  0.47122839     1.00480
C1419       C  0.29954593  0.69914375  0.50971854     0.96880
Al1420     Al  0.35793827  0.71592233  0.49026826     1.55560
O1421       O  0.28350767  0.60706383  0.50166362    -0.74860
C1422       C  0.40137365  0.70026395  0.47122729     1.01040
C1423       C  0.30317746  0.70422777  0.47225760     0.95920
O1424       O  0.28246599  0.67836175  0.47969759    -0.80180
C1425       C  0.20683509  0.73259324  0.54206994     0.05290
C1426       C  0.22970068  0.72596527  0.53397700    -0.10860
C1427       C  0.23932544  0.70195881  0.53867416     0.02790
C1428       C  0.22641545  0.68521282  0.55169722    -0.09390
C1429       C  0.20422766  0.69220346  0.55992689     0.05280
C1430       C  0.19404442  0.71542445  0.55501543    -0.08810
H1431       H  0.23798386  0.73764218  0.52360659     0.10880
H1432       H  0.23347188  0.66650941  0.55539280     0.08400
H1433       H  0.17614019  0.72008450  0.56123138     0.08250
C1434       C  0.14029794  0.60586076  0.61669210     0.05290
C1435       C  0.14503904  0.62221217  0.60352432    -0.10860
C1436       C  0.17886823  0.64567980  0.59861556     0.02790
C1437       C  0.20796130  0.65379739  0.60705143    -0.09390
C1438       C  0.20371415  0.63786591  0.62023172     0.05280
C1439       C  0.16980608  0.61367781  0.62496015    -0.08810
H1440       H  0.12250527  0.61662203  0.59712211     0.10880
H1441       H  0.23401624  0.67257141  0.60334372     0.08400
H1442       H  0.16621532  0.60261119  0.63545041     0.08250
C1443       C  0.48814165  0.79715668  0.56050968     0.05290
C1444       C  0.45892638  0.77660515  0.55192272    -0.10860
C1445       C  0.46278350  0.76390707  0.53879123     0.02790
C1446       C  0.99560367  0.77217591  0.53382891    -0.09390
C1447       C  0.02506503  0.79405700  0.54219330     0.05280
C1448       C  0.02059111  0.80689922  0.55518774    -0.08810
H1449       H  0.43315263  0.77057142  0.55544516     0.10880
H1450       H  0.99923245  0.76405298  0.52339732     0.08400
H1451       H  0.04319618  0.82412947  0.56162776     0.08250
C1452       C  0.46405970  0.82168874  0.59894577     0.05290
C1453       C  0.47321780  0.85545377  0.60350008    -0.10860
C1454       C  0.46024871  0.86031727  0.61637232     0.02790
C1455       C  0.43839811  0.83106262  0.62474278    -0.08910
C1456       C  0.42973268  0.79717411  0.62036232     0.05280
C1457       C  0.44276900  0.79276877  0.60742675    -0.08810
H1458       H  0.49036595  0.87787273  0.59706042     0.10880
H1459       H  0.43007851  0.83499128  0.63506996     0.08400
H1460       H  0.43638238  0.76677003  0.60396307     0.08250
C1461       C  0.26541474  0.97782473  0.54192600     0.05290
C1462       C  0.27509884  0.50636852  0.53276843    -0.10860
C1463       C  0.30008358  0.53991104  0.53776426     0.02790
C1464       C  0.31593398  0.54329297  0.55097327    -0.09390
C1465       C  0.30703075  0.51370236  0.55915635     0.05280
C1466       C  0.28318892  0.98276000  0.55478823    -0.08810
H1467       H  0.26414718  0.50334736  0.52225000     0.10880
H1468       H  0.33534711  0.56904407  0.55487575     0.08400
H1469       H  0.27925263  0.96027446  0.56077243     0.08250
C1470       C  0.39456898  0.54026960  0.61607608     0.05290
C1471       C  0.37750529  0.52746321  0.60299304    -0.10860
C1472       C  0.35382024  0.53718439  0.59808827     0.02790
C1473       C  0.34633953  0.55888309  0.60647168    -0.09390
C1474       C  0.36298106  0.57177333  0.61959006     0.05280
C1475       C  0.38728418  0.56255647  0.62428285    -0.08810
H1476       H  0.38265857  0.51000782  0.59666222     0.10880
H1477       H  0.32742895  0.56569580  0.60279162     0.08400
H1478       H  0.39881097  0.57080790  0.63473226     0.08250
O1479       O  0.28356627  0.61995834  0.68461054    -0.79640
C1480       C  0.36958874  0.73508611  0.64935348     0.99720
O1481       O  0.34443511  0.73174455  0.65689691    -0.68760
O1482       O  0.28633397  0.67289291  0.65091819    -0.72350
Al1483     Al  0.31013123  0.69341739  0.66813938     1.48980
C1484       C  0.26638428  0.64047207  0.64886555     0.94970
O1485       O  0.32830771  0.61981888  0.65036482    -0.78570
O1486       O  0.37992721  0.66935868  0.68497129    -0.72130
Al1487     Al  0.30737198  0.62247356  0.66753183     1.90120
O1488       O  0.38256435  0.65740636  0.65636378    -0.71190
O1489       O  0.38493502  0.73018610  0.67963126    -0.71050
O1490       O  0.38202646  0.71534007  0.65110981    -0.76710
O1491       O  0.33161894  0.71686214  0.68540531    -0.74910
O1492       O  0.33198352  0.66904780  0.66793952    -1.11040
O1493       O  0.27086298  0.66036175  0.67927395    -0.70240
C1494       C  0.26479928  0.63363450  0.68624741     1.00480
C1495       C  0.36071761  0.63234093  0.64864918     0.96880
Al1496     Al  0.37848494  0.69124184  0.66804306     1.55560
O1497       O  0.26955780  0.61848361  0.65615890    -0.74860
C1498       C  0.36429718  0.73579548  0.68697267     1.01040
C1499       C  0.36596870  0.63663448  0.68618787     0.95920
O1500       O  0.33973720  0.61599513  0.67874506    -0.80180
C1501       C  0.35196214  0.59183490  0.62880677    -0.14270
C1502       C  0.37349725  0.61639161  0.63818132    -0.29450
H1503       H  0.32504076  0.58584729  0.62792513     0.14750
H1504       H  0.40098665  0.62418216  0.63854969     0.15320
C1505       C  0.32312903  0.51826878  0.57290651    -0.11110
C1506       C  0.33713573  0.52534149  0.58440875    -0.12670
C1507       C  0.41000816  0.76648800  0.62968877    -0.14270
C1508       C  0.38558182  0.76366322  0.63895903    -0.29450
H1509       H  0.41600685  0.74558961  0.62892575     0.14750
H1510       H  0.37771627  0.78321922  0.63921348     0.15320
C1511       C  0.48323569  0.80899511  0.57411048    -0.11110
C1512       C  0.47601527  0.81627091  0.58548453    -0.12670
C1513       C  0.23475259  0.64929189  0.62941275    -0.14270
C1514       C  0.23761844  0.62770322  0.63848785    -0.29450
H1515       H  0.25582649  0.67637178  0.62868416     0.14750
H1516       H  0.21777259  0.60009156  0.63863854     0.15320
C1517       C  0.19206212  0.67540525  0.57343954    -0.11110
C1518       C  0.18432715  0.66156198  0.58488241    -0.12670
C1519       C  0.28388377  0.71230907  0.52017299    -0.14270
C1520       C  0.25947885  0.69096939  0.52951509    -0.29450
H1521       H  0.29161235  0.73979123  0.51978538     0.14750
H1522       H  0.25358241  0.66407204  0.53039412     0.15320
C1523       C  0.31244044  0.57128518  0.52875855    -0.14270
C1524       C  0.29154833  0.57468978  0.51942518    -0.29450
H1525       H  0.33964308  0.59196724  0.52974042     0.14750
H1526       H  0.26381884  0.55530052  0.51903570     0.15320
C1527       C  0.42893012  0.72068964  0.51986531    -0.14270
C1528       C  0.43204428  0.74500314  0.52933102    -0.29450
H1529       H  0.44795269  0.71213479  0.51968075     0.14750
H1530       H  0.41161272  0.75164533  0.53007638     0.15320
C1531       C  0.22455106  0.58751871  0.70264510    -0.14270
C1532       C  0.23329592  0.61657024  0.69523247    -0.29450
H1533       H  0.24335684  0.57888652  0.70391360     0.14750
H1534       H  0.21509677  0.62611410  0.69459970     0.15320
C1535       C  0.07335664  0.97826646  0.79486954    -0.14270
C1536       C  0.04892654  0.95697397  0.80416956    -0.29450
H1537       H  0.07988350  0.00538390  0.79410506     0.14750
H1538       H  0.04059677  0.92932407  0.80439838     0.15320
C1539       C  0.13816385  0.99100774  0.75062782    -0.11110
C1540       C  0.14574095  0.50529462  0.73917211    -0.12670
C1541       C  0.35931604  0.77523623  0.70447017    -0.14270
C1542       C  0.37915229  0.76710186  0.69626886    -0.29450
H1543       H  0.33195017  0.75595038  0.70625917     0.14750
H1544       H  0.40691254  0.78593103  0.69516854     0.15320
C1545       C  0.39137398  0.94170946  0.79647487    -0.14270
C1546       C  0.41913694  0.93900211  0.79991262    -0.29450
H1547       H  0.38545756  0.95879125  0.80274638     0.14750
H1548       H  0.42344587  0.91983593  0.79441262     0.15320
C1549       C  0.35434532  0.86503958  0.75305999    -0.11110
C1550       C  0.36186354  0.85686893  0.74190411    -0.12670
C1551       C  0.09414906  0.52313078  0.69611908    -0.14270
C1552       C  0.09128940  0.54485827  0.68708771    -0.29450
H1553       H  0.07296515  0.49608793  0.69680560     0.14750
H1554       H  0.11118968  0.57243800  0.68689735     0.15320
C1555       C  0.42136813  0.90471898  0.69629657    -0.14270
C1556       C  0.44467735  0.90726893  0.68650471    -0.29450
H1557       H  0.41546212  0.92563834  0.69733828     0.14750
H1558       H  0.45258865  0.88775557  0.68601582     0.15320
C1559       C  0.41697545  0.52731590  0.62185498    -0.14270
C1560       C  0.44549958  0.54785044  0.62975970    -0.29450
H1561       H  0.40863445  0.49985715  0.62023755     0.14750
H1562       H  0.45475771  0.57566522  0.63072280     0.15320
C1563       C  0.09606969  0.55505630  0.63025891    -0.14270
C1564       C  0.10452762  0.58347257  0.62243097    -0.29450
H1565       H  0.11460974  0.54600083  0.63121938     0.14750
H1566       H  0.08547031  0.59163427  0.62079919     0.15320
C1567       C  0.47272909  0.89616706  0.62180633    -0.14270
C1568       C  0.45179687  0.90410373  0.62928801    -0.29450
H1569       H  0.50022902  0.91561702  0.62044662     0.14750
H1570       H  0.42399174  0.88511056  0.63001631     0.15320
C1571       C  0.02058591  0.59379863  0.79407699    -0.14270
C1572       C  0.04252566  0.59206529  0.80339562    -0.29450
H1573       H  0.99424797  0.57149898  0.79285097     0.14750
H1574       H  0.06950150  0.61325909  0.80421859     0.15320
C1575       C  0.38216344  0.62185954  0.69523112    -0.14270
C1576       C  0.41039240  0.64203111  0.70328824    -0.29450
H1577       H  0.37279456  0.59404486  0.69411651     0.14750
H1578       H  0.41884553  0.66947246  0.70505750     0.15320
C1579       C  0.47591268  0.57834454  0.69612217    -0.14270
C1580       C  0.45465564  0.55386129  0.68672696    -0.29450
H1581       H  0.50295235  0.58471461  0.69704577     0.14750
H1582       H  0.42706109  0.54567723  0.68635101     0.15320
C1583       C  0.48780804  0.64125266  0.74089055    -0.11110
C1584       C  0.50222905  0.64765860  0.75222324    -0.12670
C1585       C  0.26600993  0.85950325  0.78717146    -0.14270
C1586       C  0.25457985  0.87894434  0.79364597    -0.29450
H1587       H  0.25021086  0.83109820  0.78714270     0.14750
H1588       H  0.27015283  0.90732990  0.79307864     0.15320
C1589       C  0.11441014  0.88318830  0.79606672    -0.14270
C1590       C  0.13481041  0.91069638  0.78778846    -0.29450
H1591       H  0.08677089  0.87442551  0.79717271     0.14750
H1592       H  0.16200040  0.91832271  0.78603526     0.15320
C1593       C  0.07859285  0.72439892  0.78972203    -0.14270
C1594       C  0.10833771  0.73402512  0.79678125    -0.29450
H1595       H  0.06886838  0.74241762  0.78882872     0.14750
H1596       H  0.11883638  0.71657050  0.79704536     0.15320
C1597       C  0.02479911  0.92250919  0.86977872    -0.14270
C1598       C  0.04503953  0.95032328  0.86165154    -0.29450
H1599       H  0.99743356  0.91430995  0.87143470     0.14750
H1600       H  0.07279679  0.95950384  0.86065311     0.15320
C1601       C  0.11218555  0.87748563  0.85362086    -0.14270
C1602       C  0.08781993  0.85636464  0.86295940    -0.29450
H1603       H  0.12052192  0.90513650  0.85332527     0.14750
H1604       H  0.08127441  0.82925358  0.86379789     0.15320
C1605       C  0.01760864  0.83019241  0.91861044    -0.11110
C1606       C  0.02436908  0.84475723  0.90735526    -0.12670
C1607       C  0.39382306  0.97246990  0.86726490    -0.14270
C1608       C  0.40068697  0.95171483  0.85899266    -0.29450
H1609       H  0.41401297  0.99958366  0.86910183     0.14750
H1610       H  0.38132437  0.92406459  0.85789511     0.15320
C1611       C  0.25919841  0.88785196  0.85165775    -0.14270
C1612       C  0.26367622  0.91288038  0.86100066    -0.29450
H1613       H  0.27815567  0.87923419  0.85110582     0.14750
H1614       H  0.24346606  0.91973821  0.86214284     0.15320
C1615       C  0.31779223  0.97502103  0.90575517    -0.11110
C1616       C  0.31051067  0.98151149  0.91730576    -0.12670
C1617       C  0.07358278  0.60654521  0.86870369    -0.14270
C1618       C  0.04645266  0.59848288  0.86001231    -0.29450
H1619       H  0.08056109  0.58684264  0.87096986     0.14750
H1620       H  0.03801640  0.61727055  0.85826711     0.15320
C1621       C  0.14321784  0.73674109  0.86189511    -0.14270
C1622       C  0.12134229  0.74074860  0.85337864    -0.29450
H1623       H  0.17075404  0.75683463  0.86222869     0.14750
H1624       H  0.09346653  0.72184943  0.85360729     0.15320
C1625       C  0.15851045  0.68419711  0.90506016    -0.11110
C1626       C  0.17331368  0.69102819  0.91633556    -0.12670
C1627       C  0.21923992  0.92691025  0.97072924    -0.14270
C1628       C  0.24379148  0.93010921  0.96141493    -0.29450
H1629       H  0.21123807  0.94635961  0.97106235     0.14750
H1630       H  0.24993934  0.90932808  0.96056990     0.15320
C1631       C  0.20877281  0.78086791  0.97007766    -0.14270
C1632       C  0.18737839  0.75647893  0.96066593    -0.29450
H1633       H  0.23631124  0.78883746  0.97044789     0.14750
H1634       H  0.16040300  0.75032513  0.95976758     0.15320
C1635       C  0.07163283  0.78988993  0.97054910    -0.14270
C1636       C  0.06855615  0.81171461  0.96166045    -0.29450
H1637       H  0.05201721  0.76221047  0.97057697     0.14750
H1638       H  0.08949030  0.83890257  0.96114517     0.15320
C1639       C  0.38000486  0.62092237  0.13868323    -0.14270
C1640       C  0.40375089  0.64180578  0.12901952    -0.29450
H1641       H  0.37233593  0.59347811  0.13924352     0.14750
H1642       H  0.40947153  0.66860984  0.12796861     0.15320
C1643       C  0.06157321  0.75171167  0.03605832    -0.14270
C1644       C  0.06925199  0.77971316  0.02803579    -0.29450
H1645       H  0.08090610  0.74388094  0.03760438     0.14750
H1646       H  0.05039727  0.78840406  0.02720260     0.15320
C1647       C  0.46937477  0.65595592  0.08460021    -0.11110
C1648       C  0.47670138  0.67026770  0.07320206    -0.12670
C1649       C  0.23536903  0.61306253  0.13892953    -0.14270
C1650       C  0.23251740  0.58897106  0.12937972    -0.29450
H1651       H  0.21604079  0.62121527  0.13918929     0.14750
H1652       H  0.25325428  0.58277714  0.12855746     0.15320
C1653       C  0.21263642  0.93039640  0.02785628    -0.14270
C1654       C  0.19206631  0.93813850  0.03571042    -0.29450
H1655       H  0.24036729  0.94948056  0.02690457     0.14750
H1656       H  0.16469863  0.91857383  0.03731332     0.15320
C1657       C  0.18876173  0.51823071  0.07284495    -0.11110
C1658       C  0.18190201  0.52539052  0.08433641    -0.12670
C1659       C  0.35102163  0.76126632  0.12908983    -0.14270
C1660       C  0.37254337  0.75860984  0.13834241    -0.29450
H1661       H  0.32392221  0.74021404  0.12833695     0.14750
H1662       H  0.40017201  0.77834991  0.13857157     0.15320
C1663       C  0.24518882  0.80626982  0.03558950    -0.14270
C1664       C  0.21715440  0.78609887  0.02742442    -0.29450
H1665       H  0.25372949  0.83375372  0.03727984     0.14750
H1666       H  0.20770065  0.75824621  0.02641397     0.15320
C1667       C  0.32156056  0.80465581  0.07361674    -0.11110
C1668       C  0.33550499  0.81133929  0.08508164    -0.12670
C1669       C  0.28738516  0.71670286  0.01931579    -0.14270
C1670       C  0.30869832  0.74052984  0.02893180    -0.29450
H1671       H  0.25999589  0.70923841  0.01878049     0.14750
H1672       H  0.33545154  0.74609864  0.02999441     0.15320
C1673       C  0.27638311  0.57073336  0.01870012    -0.14270
C1674       C  0.25204564  0.56785114  0.02802764    -0.29450
H1675       H  0.28445104  0.55132779  0.01847300     0.14750
H1676       H  0.24586348  0.58861826  0.02880568     0.15320
C1677       C  0.42557631  0.68496249  0.02912542    -0.14270
C1678       C  0.42307810  0.70666397  0.01995402    -0.29450
H1679       H  0.40444103  0.65789528  0.02976661     0.14750
H1680       H  0.44293735  0.73426863  0.01986969     0.15320
C1681       C  0.42880399  0.71790902  0.96264885    -0.14270
C1682       C  0.43699513  0.74640035  0.95494003    -0.29450
H1683       H  0.44729098  0.70874793  0.96342484     0.14750
H1684       H  0.41789197  0.75459011  0.95350665     0.15320
C1685       C  0.28486328  0.56759170  0.96156542    -0.14270
C1686       C  0.30583266  0.55986282  0.95398680    -0.29450
H1687       H  0.25709112  0.54850714  0.96232103     0.14750
H1688       H  0.33327291  0.57946688  0.95259505     0.15320
C1689       C  0.28032389  0.71221360  0.96195872    -0.14270
C1690       C  0.25227103  0.69204743  0.95378982    -0.29450
H1691       H  0.28969524  0.74003440  0.96303479     0.14750
H1692       H  0.24385962  0.66460287  0.95206720     0.15320
C1693       C  0.41372373  0.77433327  0.20271072    -0.14270
C1694       C  0.38472254  0.76556946  0.19516673    -0.29450
H1695       H  0.42201445  0.75533147  0.20421113     0.14750
H1696       H  0.37561339  0.78409194  0.19432623     0.15320
C1697       C  0.02050517  0.92244438  0.29538495    -0.14270
C1698       C  0.04167139  0.94670729  0.30489597    -0.29450
H1699       H  0.99339427  0.91588616  0.29455018     0.14750
H1700       H  0.06931261  0.95508412  0.30520947     0.15320
C1701       C  0.49514795  0.85537793  0.23950471    -0.11110
C1702       C  0.00901593  0.86154242  0.24993553    -0.12670
C1703       C  0.22490887  0.64290323  0.20475533    -0.14270
C1704       C  0.23234863  0.62216166  0.19667100    -0.29450
H1705       H  0.24466038  0.67024591  0.20639597     0.14750
H1706       H  0.21310347  0.59443562  0.19573661     0.15320
C1707       C  0.04702751  0.58918611  0.30745299    -0.14270
C1708       C  0.07309178  0.59477808  0.29847184    -0.29450
H1709       H  0.03504429  0.60525955  0.30684625     0.14750
H1710       H  0.08317544  0.57696467  0.29836374     0.15320
C1711       C  0.13511904  0.65007676  0.25344093    -0.11110
C1712       C  0.14403955  0.64419236  0.24202871    -0.12670
C1713       C  0.47908106  0.90435531  0.19536769    -0.14270
C1714       C  0.45728925  0.90674173  0.18618430    -0.29450
H1715       H  0.50610373  0.92559151  0.19609426     0.14750
H1716       H  0.42972524  0.88680138  0.18598715     0.15320
C1717       C  0.09259781  0.55617459  0.18721186    -0.14270
C1718       C  0.09511369  0.58021031  0.19674767    -0.29450
H1719       H  0.11229605  0.54851159  0.18696603     0.14750
H1720       H  0.07405689  0.58594152  0.19753821     0.15320
C1721       C  0.41656577  0.89144906  0.12196020    -0.14270
C1722       C  0.44565031  0.90050076  0.12947674    -0.29450
H1723       H  0.40799965  0.91024937  0.12049310     0.14750
H1724       H  0.45506600  0.88222383  0.13030905     0.15320
C1725       C  0.09550834  0.54774605  0.12952236    -0.14270
C1726       C  0.10297779  0.52715149  0.12147780    -0.29450
H1727       H  0.11453709  0.57553011  0.13049811     0.14750
H1728       H  0.08338777  0.49974482  0.11982932     0.15320
C1729       C  0.44986496  0.54991987  0.13047418    -0.14270
C1730       C  0.46948312  0.57791584  0.12227579    -0.29450
H1731       H  0.42202806  0.54022867  0.13155613     0.14750
H1732       H  0.49693068  0.58658725  0.12054014     0.15320
C1733       C  0.35578636  0.58575962  0.20386785    -0.14270
C1734       C  0.37589350  0.61401518  0.19587456    -0.29450
H1735       H  0.32839730  0.57738672  0.20556187     0.14750
H1736       H  0.40365993  0.62328741  0.19483783     0.15320
C1737       C  0.42103920  0.52149641  0.19689559    -0.14270
C1738       C  0.44534864  0.54298240  0.18757638    -0.29450
H1739       H  0.41532326  0.49466010  0.19779409     0.14750
H1740       H  0.45287212  0.57041121  0.18719213     0.15320
C1741       C  0.40714070  0.98071595  0.29367331    -0.14270
C1742       C  0.40881900  0.95778658  0.30237208    -0.29450
H1743       H  0.42870498  0.00762449  0.29329925     0.14750
H1744       H  0.38831839  0.93039952  0.30216308     0.15320
C1745       C  0.35348637  0.99765012  0.25107891    -0.11110
C1746       C  0.35625236  0.50736199  0.24135549    -0.12670
C1747       C  0.26912294  0.89354023  0.29727503    -0.14270
C1748       C  0.27699786  0.92150039  0.28932276    -0.29450
H1749       H  0.28753065  0.88427889  0.29806403     0.14750
H1750       H  0.25791286  0.92968653  0.28782255     0.15320
C1751       C  0.11736481  0.88290038  0.29479478    -0.14270
C1752       C  0.08935631  0.86254976  0.28663725    -0.29450
H1753       H  0.12567597  0.91038271  0.29631059     0.14750
H1754       H  0.08184579  0.83546447  0.28453385     0.15320
C1755       C  0.13849478  0.74861687  0.29017673    -0.14270
C1756       C  0.10817150  0.71819632  0.28956889    -0.29450
H1757       H  0.16091050  0.75110828  0.28440117     0.14750
H1758       H  0.08678611  0.71493735  0.29632370     0.15320
C1759       C  0.07646805  0.96964874  0.36984030    -0.14270
C1760       C  0.04761162  0.94981757  0.36207359    -0.29450
H1761       H  0.08595927  0.99738619  0.37138490     0.14750
H1762       H  0.03729594  0.92179021  0.36115462     0.15320
C1763       C  0.13857401  0.90263820  0.36232519    -0.14270
C1764       C  0.11835692  0.88034798  0.35199935    -0.29450
H1765       H  0.16510347  0.90773276  0.36367698     0.14750
H1766       H  0.09109626  0.87303207  0.35098923     0.15320
C1767       C  0.25330620  0.56261393  0.45485945    -0.14270
C1768       C  0.28452575  0.57437897  0.46111561    -0.29450
H1769       H  0.24087986  0.57836686  0.45498675     0.14750
H1770       H  0.29724174  0.55893271  0.46037403     0.15320
C1771       C  0.15586101  0.96983033  0.40661694    -0.11110
C1772       C  0.17043921  0.97780096  0.41795575    -0.12670
C1773       C  0.43897760  0.69334298  0.45330811    -0.14270
C1774       C  0.43187212  0.71407849  0.46156750    -0.29450
H1775       H  0.41923450  0.66594999  0.45177587     0.14750
H1776       H  0.45097970  0.74185681  0.46240886     0.15320
C1777       C  0.02526131  0.58245723  0.36785489    -0.14270
C1778       C  0.05594756  0.61243005  0.36877777    -0.29450
H1779       H  0.00277571  0.58039792  0.37342205     0.14750
H1780       H  0.07751632  0.61539266  0.36222080     0.15320
C1781       C  0.11726675  0.74116236  0.35051019    -0.14270
C1782       C  0.09169259  0.73592419  0.35970359    -0.29450
H1783       H  0.12905936  0.72489850  0.35093915     0.14750
H1784       H  0.08189339  0.75397426  0.35994227     0.15320
C1785       C  0.02141965  0.68790393  0.41624757    -0.11110
C1786       C  0.03013571  0.68155075  0.40487851    -0.12670
C1787       C  0.28852732  0.72063824  0.46333072    -0.14270
C1788       C  0.30871382  0.74904290  0.45552538    -0.29450
H1789       H  0.26072426  0.71125245  0.46434646     0.14750
H1790       H  0.33616131  0.75762655  0.45384695     0.15320
C1791       C  0.38751555  0.91332153  0.36805920    -0.14270
C1792       C  0.39535860  0.94091693  0.35985887    -0.29450
H1793       H  0.40654451  0.90509972  0.36965415     0.14750
H1794       H  0.37710690  0.95034785  0.35898489     0.15320
C1795       C  0.25753368  0.85466218  0.36382081    -0.14270
C1796       C  0.25609799  0.87728921  0.35485135    -0.29450
H1797       H  0.23588405  0.82781053  0.36430909     0.14750
H1798       H  0.27659124  0.90467749  0.35493720     0.15320
C1799       C  0.30533817  0.82451832  0.41799624    -0.11110
C1800       C  0.31106609  0.83769353  0.40648455    -0.12670
C1801       C  0.07258853  0.77739149  0.47074376    -0.14270
C1802       C  0.07038821  0.75322525  0.46134665    -0.29450
H1803       H  0.05292156  0.78509902  0.47074699     0.14750
H1804       H  0.09142064  0.74742386  0.46077292     0.15320
C1805       C  0.20675172  0.92578556  0.47129955    -0.14270
C1806       C  0.18498424  0.92829532  0.46215799    -0.29450
H1807       H  0.23430683  0.94575205  0.47154512     0.14750
H1808       H  0.15794245  0.90711758  0.46139114     0.15320
C1809       C  0.24360892  0.81301196  0.46285353    -0.14270
C1810       C  0.21948261  0.79141169  0.47215628    -0.29450
H1811       H  0.24920122  0.83980747  0.46194659     0.14750
H1812       H  0.21203519  0.76399354  0.47249738     0.15320
C1813       C  0.21539951  0.93231329  0.52810909    -0.14270
C1814       C  0.24417621  0.94198948  0.53594350    -0.29450
H1815       H  0.20517005  0.94989667  0.52718405     0.14750
H1816       H  0.25345348  0.92377548  0.53748053     0.15320
C1817       C  0.06063410  0.80674597  0.53658592    -0.14270
C1818       C  0.06819664  0.78603403  0.52869878    -0.29450
H1819       H  0.08007001  0.83426131  0.53809158     0.14750
H1820       H  0.04936802  0.75816721  0.52786635     0.15320
C1821       C  0.19302362  0.75419327  0.53632132    -0.14270
C1822       C  0.21312765  0.78330920  0.52884120    -0.29450
H1823       H  0.16530717  0.74483864  0.53766361     0.14750
H1824       H  0.24111968  0.79347693  0.52811812     0.15320
O1825       O  0.66865483  0.39072415  0.51048674    -0.79640
C1826       C  0.69651109  0.29792705  0.48143363     0.99720
O1827       O  0.70666577  0.33007962  0.48173076    -0.68760
O1828       O  0.70496874  0.38795877  0.48514190    -0.72350
Al1829     Al  0.70699949  0.35481688  0.49814498     1.48980
C1830       C  0.67907811  0.38612193  0.47858124     0.94970
O1831       O  0.59504814  0.30943247  0.49134293    -0.78570
O1832       O  0.60314183  0.27584528  0.51394163    -0.72130
Al1833     Al  0.63452117  0.34773933  0.50104336     1.90120
O1834       O  0.61494335  0.27458517  0.48536660    -0.71190
O1835       O  0.66661770  0.28666396  0.51865759    -0.71050
O1836       O  0.67454897  0.27749198  0.49037049    -0.76710
O1837       O  0.71808671  0.32659222  0.51045298    -0.74910
O1838       O  0.66112321  0.32848370  0.50046039    -1.11040
O1839       O  0.71277800  0.38267885  0.51433367    -0.70240
C1840       C  0.69745146  0.39962965  0.51654934     1.00480
C1841       C  0.59364527  0.28515933  0.48361452     0.96880
Al1842     Al  0.64139468  0.28237261  0.50200677     1.55560
O1843       O  0.64850272  0.36689565  0.48300981    -0.74860
C1844       C  0.69959916  0.30197942  0.51901142     1.01040
C1845       C  0.59821704  0.29709057  0.52120985     0.95920
O1846       O  0.61683537  0.32959013  0.51922828    -0.80180
C1847       C  0.84886043  0.38991652  0.37444518     0.05290
C1848       C  0.84346091  0.37152405  0.38706974    -0.10860
C1849       C  0.80956067  0.35062567  0.39234324     0.02790
C1850       C  0.78083128  0.34748450  0.38485068    -0.09390
C1851       C  0.78580317  0.36556306  0.37211067     0.05280
C1852       C  0.81994448  0.38679680  0.36700194    -0.08810
H1853       H  0.86559040  0.37347919  0.39276548     0.10880
H1854       H  0.75455777  0.33050442  0.38881377     0.08400
H1855       H  0.82390837  0.39897579  0.35673821     0.08250
C1856       C  0.78838028  0.26478177  0.44904252     0.05290
C1857       C  0.76603890  0.27188554  0.45722124    -0.10860
C1858       C  0.75479291  0.29424596  0.45216789     0.02790
C1859       C  0.76591317  0.30939796  0.43881736    -0.09390
C1860       C  0.78784727  0.30227331  0.43053354     0.05280
C1861       C  0.79955672  0.28040562  0.43570187    -0.08810
H1862       H  0.75918800  0.26167011  0.46787210     0.10880
H1863       H  0.75760081  0.32696036  0.43488562     0.08400
H1864       H  0.81715654  0.27551122  0.42938925     0.08250
C1865       C  0.54166198  0.17358656  0.39319812     0.05290
C1866       C  0.55782360  0.20413697  0.38504096    -0.10860
C1867       C  0.57472686  0.20504429  0.37233746     0.02790
C1868       C  0.57464688  0.17481930  0.36768954    -0.09390
C1869       C  0.55797364  0.14390891  0.37546427     0.05280
C1870       C  0.54139838  0.14326662  0.38835641    -0.08810
H1871       H  0.55771737  0.22737647  0.38868511     0.10880
H1872       H  0.58595017  0.17456800  0.35750260     0.08400
H1873       H  0.52860969  0.11955946  0.39456909     0.08250
C1874       C  0.51148819  0.19111500  0.43175359     0.05290
C1875       C  0.97373718  0.18936562  0.43678531    -0.10860
C1876       C  0.96799438  0.20056972  0.44993798     0.02790
C1877       C  0.99650763  0.22105467  0.45894356    -0.09390
C1878       C  0.53529858  0.22487522  0.45356925     0.05280
C1879       C  0.54018069  0.21237803  0.44054824    -0.08810
H1880       H  0.95180233  0.17314102  0.42986344     0.10880
H1881       H  0.99166170  0.22771498  0.46945781     0.08400
H1882       H  0.56634531  0.21927356  0.43723941     0.08250
C1883       C  0.72537399  0.02359950  0.45005398     0.05290
C1884       C  0.73498651  0.49712284  0.45620709    -0.10860
C1885       C  0.71366203  0.46197460  0.45244850     0.02790
C1886       C  0.69210755  0.45323459  0.44033033    -0.09390
C1887       C  0.69175858  0.47973226  0.43230191     0.05280
C1888       C  0.70880556  0.01873254  0.43688643    -0.08810
H1889       H  0.75041286  0.50350071  0.46583434     0.10880
H1890       H  0.67576440  0.42607517  0.43714970     0.08400
H1891       H  0.71386809  0.04121888  0.43062837     0.08250
C1892       C  0.63682512  0.45372003  0.39480260     0.05290
C1893       C  0.64469232  0.43412574  0.38528192    -0.10860
C1894       C  0.62841974  0.42410050  0.37194212     0.02790
C1895       C  0.60403941  0.43397565  0.36818098    -0.09390
C1896       C  0.59609805  0.45404460  0.37748199     0.05280
C1897       C  0.61290880  0.46414435  0.39078709    -0.08810
H1898       H  0.66380752  0.42690797  0.38821451     0.10880
H1899       H  0.59292274  0.42803141  0.35761216     0.08400
H1900       H  0.60750590  0.48013316  0.39793731     0.08250
O1901       O  0.72531168  0.34197570  0.31228636    -0.79640
C1902       C  0.63170073  0.36917143  0.34058808     0.99720
O1903       O  0.66394936  0.38376526  0.33810895    -0.68760
O1904       O  0.72379903  0.38652455  0.33420718    -0.72350
Al1905     Al  0.68542885  0.37853055  0.32164628     1.48980
C1906       C  0.72755120  0.36581031  0.34225142     0.94970
O1907       O  0.65426310  0.27287401  0.33571504    -0.78570
O1908       O  0.61161671  0.26716572  0.31377992    -0.72130
Al1909     Al  0.68664908  0.30984918  0.32371849     1.90120
O1910       O  0.61635149  0.28873241  0.34168644    -0.71190
O1911       O  0.61207319  0.32336824  0.30586147    -0.71050
O1912       O  0.61027046  0.34225527  0.33365521    -0.76710
O1913       O  0.65116162  0.37918757  0.30879398    -0.74910
O1914       O  0.66293624  0.33216566  0.32296261    -1.11040
O1915       O  0.71059944  0.37956818  0.30514159    -0.70240
C1916       C  0.73066749  0.36722016  0.30453579     1.00480
C1917       C  0.63047173  0.27061092  0.34382294     0.96880
Al1918     Al  0.61642918  0.30753868  0.32367143     1.55560
O1919       O  0.70947607  0.33317772  0.34042554    -0.74860
C1920       C  0.62518709  0.35469169  0.30213116     1.01040
C1921       C  0.63269496  0.26289164  0.30613832     0.95920
O1922       O  0.66526434  0.28385636  0.30697547    -0.80180
C1923       C  0.84680416  0.47697369  0.26522108     0.05290
C1924       C  0.87591174  0.48285232  0.27319906    -0.10860
C1925       C  0.87154836  0.46476530  0.28587187     0.02790
C1926       C  0.83746720  0.44062182  0.29048841    -0.09390
C1927       C  0.80803601  0.43502976  0.28264251     0.05280
C1928       C  0.81298057  0.45348451  0.27003403    -0.08810
H1929       H  0.90202229  0.50173557  0.26958991     0.10880
H1930       H  0.83377086  0.42805369  0.30065306     0.08400
H1931       H  0.79050900  0.44962319  0.26399874     0.08250
C1932       C  0.87105925  0.02569993  0.22575488     0.05290
C1933       C  0.89091871  0.01663356  0.21703912    -0.10860
C1934       C  0.90194872  0.03178181  0.20366894     0.02790
C1935       C  0.89268265  0.05608272  0.19906138    -0.09390
C1936       C  0.87211636  0.06477105  0.20766833     0.05280
C1937       C  0.86114829  0.04925262  0.22100140    -0.08810
H1938       H  0.89786424  0.99780065  0.22067863     0.10880
H1939       H  0.89962276  0.06662301  0.18845601     0.08400
H1940       H  0.84505250  0.05556230  0.22765487     0.08250
O1941       O  0.94955622  0.45258758  0.14071081    -0.79640
C1942       C  0.56483939  0.03794213  0.17547315     0.99720
O1943       O  0.56121049  0.01267897  0.16785584    -0.68760
O1944       O  0.00235437  0.45669429  0.17488429    -0.72350
Al1945     Al  0.52296183  0.47977477  0.15829458     1.48980
C1946       C  0.97000082  0.43641991  0.17674420     0.94970
O1947       O  0.94757436  0.99513012  0.17264700    -0.78570
O1948       O  0.99767314  0.04671890  0.13852732    -0.72130
Al1949     Al  0.95173499  0.47672666  0.15773082     1.90120
O1950       O  0.98555606  0.04932852  0.16695630    -0.71190
O1951       O  0.55969936  0.05305348  0.14536901    -0.71050
O1952       O  0.54509849  0.05044214  0.17380020    -0.76710
O1953       O  0.54562403  0.50045458  0.14101551    -0.74910
O1954       O  0.99823947  0.50161933  0.15759694    -1.11040
O1955       O  0.98987535  0.44011705  0.14650493    -0.70240
C1956       C  0.96331872  0.43384501  0.13927808     1.00480
C1957       C  0.96037563  0.02760686  0.17447540     0.96880
Al1958     Al  0.52100499  0.04694044  0.15671858     1.55560
O1959       O  0.94792154  0.43916766  0.16926538    -0.74860
C1960       C  0.56500845  0.03216972  0.13804627     1.01040
C1961       C  0.96498231  0.03276342  0.13707109     0.95920
O1962       O  0.94418699  0.00621404  0.14421888    -0.80180
C1963       C  0.62841820  0.14807070  0.26657514     0.05290
C1964       C  0.60730988  0.11946621  0.27529549    -0.10860
C1965       C  0.59550412  0.12463111  0.28843848     0.02790
C1966       C  0.60531597  0.15879438  0.29275755    -0.09390
C1967       C  0.62666851  0.18759448  0.28413133     0.05280
C1968       C  0.63842379  0.18210408  0.27108249    -0.08810
H1969       H  0.60011854  0.09322427  0.27186680     0.10880
H1970       H  0.59811753  0.16326494  0.30322551     0.08400
H1971       H  0.65521722  0.20424687  0.26444753     0.08250
C1972       C  0.65229912  0.12715886  0.22722018     0.05290
C1973       C  0.62336234  0.10718106  0.21842358    -0.10860
C1974       C  0.62774931  0.09665035  0.20489082     0.02790
C1975       C  0.66165556  0.10654757  0.20018992    -0.09390
C1976       C  0.69101095  0.12732475  0.20882605     0.05280
C1977       C  0.68614354  0.13778869  0.22233466    -0.08810
H1978       H  0.59732614  0.09974172  0.22213070     0.10880
H1979       H  0.66544869  0.09992810  0.18949369     0.08400
H1980       H  0.70858668  0.15402364  0.22902124     0.08250
C1981       C  0.53479390  0.38142929  0.26519613     0.05290
C1982       C  0.56413509  0.37950270  0.26964537    -0.10860
C1983       C  0.58146423  0.39607521  0.28241798     0.02790
C1984       C  0.56924892  0.41416754  0.29055324    -0.09390
C1985       C  0.53964893  0.41559912  0.28646989     0.05280
C1986       C  0.52248382  0.39906346  0.27377230    -0.08810
H1987       H  0.57340317  0.36538315  0.26325966     0.10880
H1988       H  0.58169915  0.42506030  0.30067253     0.08400
H1989       H  0.49947635  0.39991529  0.27056171     0.08250
C1990       C  0.93814388  0.31073601  0.20835698     0.05290
C1991       C  0.95557635  0.31563227  0.22133245    -0.10860
C1992       C  0.97902998  0.34955410  0.22634806     0.02790
C1993       C  0.98596244  0.37861387  0.21818714    -0.09390
C1994       C  0.96896833  0.37423543  0.20518355     0.05280
C1995       C  0.94485437  0.34020411  0.20037298    -0.08810
H1996       H  0.95086284  0.29313154  0.22749881     0.10880
H1997       H  0.00473368  0.40474727  0.22195108     0.08400
H1998       H  0.93302342  0.33650438  0.18999722     0.08250
O1999       O  0.94550068  0.44271955  0.35112954    -0.79640
C2000       C  0.53630494  0.06508914  0.31825379     0.99720
O2001       O  0.50948820  0.06023977  0.32495821    -0.68760
O2002       O  0.95251356  0.49711342  0.31690107    -0.72350
Al2003     Al  0.97771512  0.02287308  0.33466162     1.48980
C2004       C  0.93298479  0.46475994  0.31460834     0.94970
O2005       O  0.49517304  0.45013455  0.31872310    -0.78570
O2006       O  0.54015913  0.49545047  0.35513834    -0.72130
Al2007     Al  0.97250296  0.44765913  0.33470622     1.90120
O2008       O  0.54777850  0.48968662  0.32613152    -0.71190
O2009       O  0.54382653  0.05546139  0.34984982    -0.71050
O2010       O  0.54978249  0.04665072  0.32075928    -0.76710
O2011       O  0.99825374  0.04518595  0.35210054    -0.74910
O2012       O  0.99521707  0.49408352  0.33583149    -1.11040
O2013       O  0.93076654  0.48096126  0.34455880    -0.70240
C2014       C  0.92559604  0.45531824  0.35203883     1.00480
C2015       C  0.52798071  0.46602502  0.31736805     0.96880
Al2016     Al  0.54263280  0.01972143  0.33712900     1.55560
O2017       O  0.93551964  0.44275971  0.32221619    -0.74860
C2018       C  0.51940822  0.05686943  0.35639144     1.01040
C2019       C  0.52847039  0.46290108  0.35532156     0.95920
O2020       O  0.50395991  0.44260797  0.34704641    -0.80180
O2021       O  0.89216612  0.17593503  0.97895382    -0.79640
C2022       C  0.80168968  0.20357411  0.00909114     0.99720
O2023       O  0.83413677  0.21634628  0.00740902    -0.68760
O2024       O  0.89309489  0.21791303  0.00189622    -0.72350
Al2025     Al  0.85533774  0.21372856  0.99035731     1.48980
C2026       C  0.89624636  0.19595965  0.00923843     0.94970
O2027       O  0.81841027  0.10465346  0.00114955    -0.78570
O2028       O  0.77800824  0.10590363  0.97849475    -0.72130
Al2029     Al  0.85276582  0.14297646  0.99000313     1.90120
O2030       O  0.78066990  0.12093355  0.00685513    -0.71190
O2031       O  0.78292516  0.16644639  0.97281162    -0.71050
O2032       O  0.77996691  0.17862786  0.00132737    -0.76710
O2033       O  0.82299967  0.21994328  0.97894088    -0.74910
O2034       O  0.83081431  0.16719443  0.99004117    -1.11040
O2035       O  0.87940973  0.21615320  0.97337447    -0.70240
C2036       C  0.89826352  0.20253143  0.97189395     1.00480
C2037       C  0.79304021  0.10110151  0.00857891     0.96880
Al2038     Al  0.78427789  0.14485953  0.98985151     1.55560
O2039       O  0.87624825  0.16353557  0.00723517    -0.74860
C2040       C  0.79690566  0.19913540  0.97145198     1.01040
C2041       C  0.79885380  0.10033516  0.97133168     0.95920
O2042       O  0.83151237  0.11967856  0.97280127    -0.80180
C2043       C  0.76712975  0.29423910  0.04178723     0.05290
C2044       C  0.77481841  0.27236515  0.03352539    -0.10860
C2045       C  0.79867651  0.26275077  0.03835861     0.02790
C2046       C  0.81454090  0.27486104  0.05162628    -0.09390
C2047       C  0.80666696  0.29620652  0.06001853     0.05280
C2048       C  0.78339388  0.30632891  0.05503072    -0.08810
H2049       H  0.76396495  0.26474914  0.02294489     0.10880
H2050       H  0.83318109  0.26777689  0.05540282     0.08400
H2051       H  0.77798906  0.32354858  0.06140289     0.08250
C2052       C  0.89551090  0.35779683  0.11651103     0.05290
C2053       C  0.87802508  0.35318331  0.10359723    -0.10860
C2054       C  0.85405000  0.31943593  0.09864389     0.02790
C2055       C  0.84667873  0.29020498  0.10676603    -0.09390
C2056       C  0.86375951  0.29432080  0.11971981     0.05280
C2057       C  0.88839820  0.32821855  0.12449322    -0.08810
H2058       H  0.88302164  0.37579965  0.09744409     0.10880
H2059       H  0.82748990  0.26419192  0.10302692     0.08400
H2060       H  0.90024835  0.33176543  0.13485468     0.08250
C2061       C  0.69985042  0.01359801  0.05884161     0.05290
C2062       C  0.72069163  0.04254941  0.05033664    -0.10860
C2063       C  0.73249332  0.03810011  0.03712785     0.02790
C2064       C  0.72806916  0.50436097  0.03373613    -0.09390
C2065       C  0.70491935  0.47478370  0.04169215     0.05280
C2066       C  0.69147576  0.47933104  0.05451391    -0.08810
H2067       H  0.72779700  0.06860510  0.05401673     0.10880
H2068       H  0.73667920  0.50075476  0.02342281     0.08400
H2069       H  0.67330438  0.45668239  0.06062173     0.08250
C2070       C  0.67815541  0.03697747  0.09786734     0.05290
C2071       C  0.64455715  0.02724140  0.10262837    -0.10860
C2072       C  0.64007180  0.03930011  0.11579053     0.02790
C2073       C  0.66954938  0.06089586  0.12423385    -0.09390
C2074       C  0.70331231  0.07003590  0.11961577     0.05280
C2075       C  0.70734393  0.05785882  0.10639280    -0.08810
H2076       H  0.62196139  0.01034930  0.09611749     0.10880
H2077       H  0.66594069  0.06864522  0.13474693     0.08400
H2078       H  0.73323770  0.06462739  0.10273445     0.08250
C2079       C  0.52354204  0.22875956  0.04098160     0.05290
C2080       C  0.99312109  0.22184517  0.03268510    -0.10860
C2081       C  0.95926660  0.19769422  0.03748733     0.02790
C2082       C  0.95525921  0.18099886  0.05046709    -0.09390
C2083       C  0.98453387  0.18828999  0.05861489     0.05280
C2084       C  0.51916164  0.21187870  0.05398867    -0.08810
H2085       H  0.99652166  0.23345772  0.02231857     0.10880
H2086       H  0.92926079  0.16221755  0.05422762     0.08400
H2087       H  0.54187327  0.21712622  0.06019349     0.08250
C2088       C  0.95776555  0.10048536  0.11489438     0.05290
C2089       C  0.97012681  0.11725215  0.10184502    -0.10860
C2090       C  0.96060887  0.14113445  0.09711901     0.02790
C2091       C  0.93958258  0.14916761  0.10560867    -0.09390
C2092       C  0.92715710  0.13283173  0.11871835     0.05280
C2093       C  0.93609311  0.10821490  0.12325903    -0.08810
H2094       H  0.98715607  0.11177243  0.09541226     0.10880
H2095       H  0.93301201  0.16832159  0.10203522     0.08400
H2096       H  0.92820124  0.09683661  0.13369594     0.08250
O2097       O  0.84275507  0.22846773  0.17878674    -0.79640
C2098       C  0.86848900  0.13692215  0.14796690     0.99720
O2099       O  0.88150227  0.16945122  0.14972922    -0.68760
O2100       O  0.88385618  0.22880959  0.15553894    -0.72350
Al2101     Al  0.87959324  0.19099042  0.16691554     1.48980
C2102       C  0.86186541  0.23213015  0.14826445     0.94970
O2103       O  0.77045979  0.15516428  0.15626153    -0.78570
O2104       O  0.77172667  0.11446721  0.17877014    -0.72130
Al2105     Al  0.80917712  0.18924756  0.16756173     1.90120
O2106       O  0.78606420  0.11699470  0.15031360    -0.71190
O2107       O  0.83221332  0.11865549  0.18419269    -0.71050
O2108       O  0.84346393  0.11544412  0.15564057    -0.76710
O2109       O  0.88565857  0.15839748  0.17810155    -0.74910
O2110       O  0.83302175  0.16686797  0.16729896    -1.11040
O2111       O  0.88301131  0.21547903  0.18403709    -0.70240
C2112       C  0.86957900  0.23445963  0.18575047     1.00480
C2113       C  0.76657724  0.12977528  0.14865272     0.96880
Al2114     Al  0.81026509  0.12029641  0.16726952     1.55560
O2115       O  0.82949557  0.21266753  0.15039075    -0.74860
C2116       C  0.86490358  0.13221465  0.18542486     1.01040
C2117       C  0.76644078  0.13535957  0.18612137     0.95920
O2118       O  0.78584251  0.16803718  0.18475621    -0.80180
O2119       O  0.61806812  0.28354667  0.01682689    -0.79640
C2120       C  0.70308554  0.39898326  0.98137441     0.99720
O2121       O  0.67788958  0.39527038  0.98898382    -0.68760
O2122       O  0.62045357  0.33610505  0.98307479    -0.72350
Al2123     Al  0.64397476  0.35680048  0.00025054     1.48980
C2124       C  0.60076118  0.30367149  0.98101612     0.94970
O2125       O  0.66330039  0.28402211  0.98264447    -0.78570
O2126       O  0.71478292  0.33420779  0.01711140    -0.72130
Al2127     Al  0.64214885  0.28638742  0.99975930     1.90120
O2128       O  0.71744626  0.32225288  0.98855187    -0.71190
O2129       O  0.71883823  0.39449561  0.01164820    -0.71050
O2130       O  0.71605510  0.37968554  0.98312605    -0.76710
O2131       O  0.66527782  0.38031013  0.01745000    -0.74910
O2132       O  0.66632486  0.33297365  0.00009079    -1.11040
O2133       O  0.60484552  0.32350809  0.01139972    -0.70240
C2134       C  0.59903451  0.29693340  0.01842601     1.00480
C2135       C  0.69575748  0.29707613  0.98086706     0.96880
Al2136     Al  0.71289091  0.35575927  0.00013878     1.55560
O2137       O  0.60413411  0.28180999  0.98831749    -0.74860
C2138       C  0.69791236  0.39965707  0.01897931     1.01040
C2139       C  0.70095752  0.30153182  0.01848497     0.95920
O2140       O  0.67482772  0.28058902  0.01105424    -0.80180
C2141       C  0.59709551  0.14201782  0.87455106     0.05290
C2142       C  0.61494118  0.14604437  0.88733737    -0.10860
C2143       C  0.64017366  0.17945057  0.89217082     0.02790
C2144       C  0.64828494  0.20893967  0.88410684    -0.09390
C2145       C  0.63077893  0.20546187  0.87133666     0.05280
C2146       C  0.60501044  0.17191670  0.86663178    -0.08810
H2147       H  0.60945016  0.12319189  0.89343327     0.10880
H2148       H  0.66837506  0.23467591  0.88775367     0.08400
H2149       H  0.59300213  0.16888479  0.85634175     0.08250
C2150       C  0.73052301  0.20629686  0.94820429     0.05290
C2151       C  0.71355350  0.19349554  0.93512149    -0.10860
C2152       C  0.68977271  0.20308920  0.93026376     0.02790
C2153       C  0.68214478  0.22465973  0.93862019    -0.09390
C2154       C  0.69869046  0.23749312  0.95172372     0.05280
C2155       C  0.72305875  0.22841244  0.95642627    -0.08810
H2156       H  0.71873960  0.17606208  0.92879033     0.10880
H2157       H  0.66310290  0.23131424  0.93495236     0.08400
H2158       H  0.73441879  0.23655584  0.96690577     0.08250
C2159       C  0.82101334  0.46509629  0.89215143     0.05290
C2160       C  0.79133671  0.44460602  0.88379669    -0.10860
C2161       C  0.79429598  0.43173709  0.87055984     0.02790
C2162       C  0.82753149  0.43973382  0.86567004    -0.09390
C2163       C  0.85769171  0.46088294  0.87381875     0.05280
C2164       C  0.85425279  0.47372026  0.88707505    -0.08810
H2165       H  0.76579393  0.43863380  0.88761378     0.10880
H2166       H  0.83022768  0.43145503  0.85512571     0.08400
H2167       H  0.87732105  0.49035893  0.89338256     0.08250
C2168       C  0.79570120  0.48796085  0.93080314     0.05290
C2169       C  0.80517823  0.01975560  0.93681112    -0.10860
C2170       C  0.79235743  0.02431508  0.94973468     0.02790
C2171       C  0.77044884  0.99489241  0.95802834    -0.09390
C2172       C  0.76168079  0.46221379  0.95223692     0.05280
C2173       C  0.77546531  0.45870706  0.93931247    -0.08810
H2174       H  0.82227785  0.04231955  0.93042399     0.10880
H2175       H  0.76206575  0.99859530  0.96838199     0.08400
H2176       H  0.77052858  0.43315085  0.93589191     0.08250
C2177       C  0.53990277  0.40240220  0.87663410     0.05290
C2178       C  0.52718371  0.38536396  0.88958951    -0.10860
C2179       C  0.53577109  0.36064553  0.89407238     0.02790
C2180       C  0.55616662  0.35205681  0.88546757    -0.09390
C2181       C  0.56887153  0.36865979  0.87244698     0.05280
C2182       C  0.56086765  0.39406370  0.86811451    -0.08810
H2183       H  0.51061750  0.39127170  0.89612819     0.10880
H2184       H  0.56204041  0.33229239  0.88888573     0.08400
H2185       H  0.56890582  0.40563985  0.85771560     0.08250
C2186       C  0.97435429  0.27068181  0.94976418     0.05290
C2187       C  0.50395805  0.27747710  0.95766313    -0.10860
C2188       C  0.53770035  0.30206133  0.95291809     0.02790
C2189       C  0.54149012  0.31938639  0.94013273    -0.09390
C2190       C  0.51207656  0.31228362  0.93214117     0.05280
C2191       C  0.97875388  0.28826929  0.93697032    -0.08810
H2192       H  0.00069460  0.26529402  0.96792923     0.10880
H2193       H  0.56740273  0.33853567  0.93641438     0.08400
H2194       H  0.95606041  0.28361966  0.93089117     0.08250
O2195       O  0.61199903  0.28418432  0.80747574    -0.79640
C2196       C  0.72891289  0.37134723  0.84219510     0.99720
O2197       O  0.72472387  0.34573011  0.83469188    -0.68760
O2198       O  0.66573904  0.28848588  0.84123407    -0.72350
Al2199     Al  0.68557782  0.31106777  0.82386347     1.48980
C2200       C  0.63332535  0.26899013  0.84336325     0.94970
O2201       O  0.61293535  0.33127833  0.84124169    -0.78570
O2202       O  0.66231250  0.38098016  0.80685948    -0.72130
Al2203     Al  0.61511128  0.30919656  0.82432226     1.90120
O2204       O  0.65160698  0.38513730  0.83540687    -0.71190
O2205       O  0.72169220  0.38507621  0.81199394    -0.71050
O2206       O  0.70924525  0.38395895  0.84063421    -0.76710
O2207       O  0.70774489  0.33126587  0.80642497    -0.74910
O2208       O  0.66162540  0.33337034  0.82398575    -1.11040
O2209       O  0.65207139  0.27130049  0.81312121    -0.70240
C2210       C  0.62548656  0.26521179  0.80603010     1.00480
C2211       C  0.62644106  0.36383578  0.84303855     0.96880
Al2212     Al  0.68431963  0.37989574  0.82375225     1.55560
O2213       O  0.61124528  0.27214705  0.83606785    -0.74860
C2214       C  0.72572826  0.36380977  0.80437823     1.01040
C2215       C  0.62976695  0.36667656  0.80513380     0.95920
O2216       O  0.60882109  0.34102203  0.81265624    -0.80180
C2217       C  0.93148943  0.12768570  0.70888780     0.05290
C2218       C  0.94740545  0.13926454  0.72217219    -0.10860
C2219       C  0.97086022  0.12936601  0.72700261     0.02790
C2220       C  0.97943725  0.10885693  0.71845192    -0.09390
C2221       C  0.96391878  0.09722219  0.70511721     0.05280
C2222       C  0.93962906  0.10643814  0.70040237    -0.08810
H2223       H  0.94156256  0.15593080  0.72871390     0.10880
H2224       H  0.99831010  0.10201734  0.72216679     0.08400
H2225       H  0.92881106  0.09905237  0.68980588     0.08250
C2226       C  0.55797086  0.18875247  0.78362963     0.05290
C2227       C  0.53969567  0.18434348  0.77099488    -0.10860
C2228       C  0.51745447  0.15073278  0.76557313     0.02790
C2229       C  0.51262141  0.12132343  0.77289981    -0.09390
C2230       C  0.53049579  0.12523610  0.78561159     0.05280
C2231       C  0.55334916  0.15911376  0.79091592    -0.08810
H2232       H  0.54285900  0.20701788  0.76538594     0.10880
H2233       H  0.49471183  0.09532274  0.76874996     0.08400
H2234       H  0.56575977  0.16243522  0.80113421     0.08250
O2235       O  0.55852895  0.01185717  0.64634115    -0.79640
C2236       C  0.96872302  0.03876253  0.67600407     0.99720
O2237       O  0.00126874  0.05191175  0.67442917    -0.68760
O2238       O  0.55845365  0.05296788  0.66952751    -0.72350
Al2239     Al  0.52058997  0.04841689  0.65789745     1.48980
C2240       C  0.56177853  0.03103729  0.67682184     0.94970
O2241       O  0.98560208  0.43991687  0.66879352    -0.78570
O2242       O  0.94462644  0.44024088  0.64623847    -0.72130
Al2243     Al  0.52018422  0.47901792  0.65712058     1.90120
O2244       O  0.94755562  0.45565542  0.67463791    -0.71190
O2245       O  0.95068546  0.00225448  0.63977395    -0.71050
O2246       O  0.94736380  0.01362662  0.66824101    -0.76710
O2247       O  0.99026719  0.05586763  0.64604761    -0.74910
O2248       O  0.99898778  0.00349156  0.65685666    -1.11040
O2249       O  0.54515925  0.05170730  0.64091515    -0.70240
C2250       C  0.56434958  0.03848919  0.63935048     1.00480
C2251       C  0.96044470  0.43628203  0.67640253     0.96880
Al2252     Al  0.95036489  0.47903162  0.65749399     1.55560
O2253       O  0.54226865  0.99863653  0.67462438    -0.74860
C2254       C  0.96403342  0.03495274  0.63865591     1.01040
C2255       C  0.96564782  0.43522485  0.63893936     0.95920
O2256       O  0.99828548  0.45480951  0.64037188    -0.80180
C2257       C  0.84561999  0.37761128  0.76610174     0.05290
C2258       C  0.81057173  0.36288122  0.77026951    -0.10860
C2259       C  0.80206128  0.37583270  0.78230534     0.02790
C2260       C  0.82889339  0.40301229  0.79032010    -0.09390
C2261       C  0.86391332  0.41696146  0.78661106     0.05280
C2262       C  0.87230831  0.40443457  0.77431614    -0.08810
H2263       H  0.78999754  0.34167929  0.76411572     0.10880
H2264       H  0.82271566  0.41190132  0.80007747     0.08400
H2265       H  0.89938923  0.41540096  0.77116699     0.08250
C2266       C  0.87220600  0.31166615  0.71036261     0.05290
C2267       C  0.86152199  0.31721519  0.72369987    -0.10860
C2268       C  0.87214579  0.35133628  0.72838641     0.02790
C2269       C  0.89242436  0.37985162  0.71955816    -0.09390
C2270       C  0.90312637  0.37480192  0.70618219     0.05280
C2271       C  0.89322770  0.34063172  0.70169813    -0.08810
H2272       H  0.84489841  0.29507194  0.73036038     0.10880
H2273       H  0.89968466  0.40606797  0.72306677     0.08400
H2274       H  0.89986528  0.33629545  0.69109633     0.08250
C2275       C  0.62543170  0.43305531  0.78143091     0.05290
C2276       C  0.60605821  0.44267265  0.79025342    -0.10860
C2277       C  0.59783759  0.46788937  0.78599872     0.02790
C2278       C  0.60941081  0.48374934  0.77276316    -0.09390
C2279       C  0.62878680  0.47438745  0.76384908     0.05280
C2280       C  0.63716976  0.44934245  0.76824128    -0.08810
H2281       H  0.59932392  0.43201520  0.80083653     0.10880
H2282       H  0.60344542  0.50349536  0.76941699     0.08400
H2283       H  0.65276516  0.44262505  0.76147162     0.08250
C2284       C  0.68779117  0.06363876  0.70849831     0.05290
C2285       C  0.65812502  0.05714894  0.70063710    -0.10860
C2286       C  0.62431822  0.03220948  0.70521572     0.02790
C2287       C  0.62044175  0.01421823  0.71785650    -0.09390
C2288       C  0.64981234  0.02097222  0.72583490     0.05280
C2289       C  0.68341662  0.04525335  0.72106893    -0.08810
H2290       H  0.66154067  0.06973036  0.69049246     0.10880
H2291       H  0.59452065  0.99478161  0.72145213     0.08400
H2292       H  0.70613003  0.04981018  0.72711032     0.08250
O2293       O  0.50632635  0.05930116  0.84276169    -0.79640
C2294       C  0.54251207  0.47244466  0.81641553     0.99720
O2295       O  0.55396656  0.50486276  0.81761174    -0.68760
O2296       O  0.55257040  0.06169168  0.82175831    -0.72350
Al2297     Al  0.54821297  0.02478364  0.83384948     1.48980
C2298       C  0.53117351  0.06296940  0.81334925     0.94970
O2299       O  0.94000662  0.48208767  0.81909413    -0.78570
O2300       O  0.93900891  0.44526218  0.84444049    -0.72130
Al2301     Al  0.97408188  0.02187940  0.83399767     1.90120
O2302       O  0.95948112  0.44555010  0.81681870    -0.71190
O2303       O  0.50207507  0.45623649  0.85247325    -0.71050
O2304       O  0.01692011  0.44932863  0.82461684    -0.76710
O2305       O  0.55500578  0.99412982  0.84610701    -0.74910
O2306       O  0.00071628  0.49873453  0.83340790    -1.11040
O2307       O  0.54693244  0.04862279  0.85027577    -0.70240
C2308       C  0.53203244  0.06646932  0.85082660     1.00480
C2309       C  0.94049829  0.45707731  0.81259152     0.96880
Al2310     Al  0.98050760  0.45254597  0.83458382     1.55560
O2311       O  0.49897620  0.04111730  0.81425560    -0.74860
C2312       C  0.53469709  0.47006847  0.85407079     1.01040
C2313       C  0.93136298  0.46611622  0.85049544     0.95920
O2314       O  0.94893651  0.49843940  0.84808377    -0.80180
O2315       O  0.77918146  0.11777629  0.47482820    -0.79640
C2316       C  0.89631475  0.20415826  0.50967491     0.99720
O2317       O  0.89185213  0.17814981  0.50236039    -0.68760
O2318       O  0.83248820  0.12126957  0.50873233    -0.72350
Al2319     Al  0.85265549  0.14372541  0.49137524     1.48980
C2320       C  0.80007154  0.10180032  0.51077937     0.94970
O2321       O  0.78123417  0.16505707  0.50880722    -0.78570
O2322       O  0.83005300  0.21416420  0.47399277    -0.72130
Al2323     Al  0.78271154  0.14272475  0.49179640     1.90120
O2324       O  0.81977499  0.21872478  0.50258481    -0.71190
O2325       O  0.89004660  0.21779259  0.47930141    -0.71050
O2326       O  0.87712624  0.21720847  0.50782701    -0.76710
O2327       O  0.87530829  0.16365490  0.47403483    -0.74910
O2328       O  0.82923774  0.16651765  0.49135373    -1.11040
O2329       O  0.81883308  0.10422493  0.48044800    -0.70240
C2330       C  0.79252090  0.09869202  0.47324233     1.00480
C2331       C  0.79485492  0.19771538  0.51041352     0.96880
Al2332     Al  0.85233117  0.21308221  0.49093831     1.55560
O2333       O  0.77821253  0.10512645  0.50341008    -0.74860
C2334       C  0.89442186  0.19612021  0.47210248     1.01040
C2335       C  0.79737823  0.20039612  0.47270004     0.95920
O2336       O  0.77671402  0.17488944  0.48033735    -0.80180
C2337       C  0.71003290  0.23944579  0.54338283     0.05290
C2338       C  0.73063311  0.23020312  0.53508202    -0.10860
C2339       C  0.73791570  0.20445269  0.53967602     0.02790
C2340       C  0.72476339  0.18825817  0.55274926    -0.09390
C2341       C  0.70467563  0.19759079  0.56119867     0.05280
C2342       C  0.69699076  0.22284419  0.55645555    -0.08810
H2343       H  0.73876295  0.24112825  0.52459366     0.10880
H2344       H  0.72997377  0.16814110  0.55631146     0.08400
H2345       H  0.68053747  0.22924103  0.56282430     0.08250
C2346       C  0.64014778  0.10735480  0.61707168     0.05290
C2347       C  0.64486361  0.12485955  0.60418703    -0.10860
C2348       C  0.67867170  0.14891153  0.59942525     0.02790
C2349       C  0.70777931  0.15631334  0.60772489    -0.09390
C2350       C  0.70356726  0.13925424  0.62063208     0.05280
C2351       C  0.66967174  0.11457677  0.62520556    -0.08810
H2352       H  0.62231560  0.11978535  0.59790713     0.10880
H2353       H  0.73381502  0.17550795  0.60414740     0.08400
H2354       H  0.66608346  0.10271511  0.63552761     0.08250
C2355       C  0.98313453  0.29684599  0.56071878     0.05290
C2356       C  0.95453977  0.27637727  0.55186683    -0.10860
C2357       C  0.95931767  0.26393338  0.53883960     0.02790
C2358       C  0.49453715  0.27010392  0.53481909    -0.09390
C2359       C  0.52388183  0.29194624  0.54328337     0.05280
C2360       C  0.51924514  0.30507948  0.55616365    -0.08810
H2361       H  0.92851852  0.27011288  0.55512636     0.10880
H2362       H  0.49829942  0.26157160  0.52449376     0.08400
H2363       H  0.54174399  0.32219740  0.56267744     0.08250
C2364       C  0.96075086  0.32072995  0.59945188     0.05290
C2365       C  0.97080983  0.35461417  0.60405900    -0.10860
C2366       C  0.95924422  0.35977561  0.61718073     0.02790
C2367       C  0.93797860  0.33077851  0.62575787    -0.08910
C2368       C  0.92852495  0.29676371  0.62127387     0.05280
C2369       C  0.94015189  0.29198220  0.60808722    -0.08810
H2370       H  0.98742779  0.37686901  0.59744110     0.10880
H2371       H  0.93059655  0.33496398  0.63624267     0.08400
H2372       H  0.93308676  0.26585350  0.60452473     0.08250
C2373       C  0.76511166  0.47465146  0.54013080     0.05290
C2374       C  0.77336172  0.00525832  0.53432189    -0.10860
C2375       C  0.79762459  0.03916208  0.53922179     0.02790
C2376       C  0.81425395  0.04323680  0.55227420    -0.09390
C2377       C  0.80683467  0.01397671  0.56037146     0.05280
C2378       C  0.78160978  0.47830441  0.55327403    -0.08810
H2379       H  0.76181639  0.00177520  0.52389730     0.10880
H2380       H  0.83315579  0.06925721  0.55610930     0.08400
H2381       H  0.77539056  0.45525621  0.55937602     0.08250
C2382       C  0.89559974  0.04158138  0.61664841     0.05290
C2383       C  0.87847362  0.02879091  0.60361948    -0.10860
C2384       C  0.85455277  0.03823761  0.59887725     0.02790
C2385       C  0.84683664  0.05961741  0.60730788    -0.09390
C2386       C  0.86353452  0.07248229  0.62038967     0.05280
C2387       C  0.88818372  0.06361060  0.62497723    -0.08810
H2388       H  0.88374006  0.01152580  0.59720631     0.10880
H2389       H  0.82767583  0.06616652  0.60369854     0.08400
H2390       H  0.89986554  0.07188882  0.63540168     0.08250
O2391       O  0.78225393  0.11918512  0.68487309    -0.79640
C2392       C  0.86882042  0.23502164  0.65024307     0.99720
O2393       O  0.84356692  0.23160613  0.65772479    -0.68760
O2394       O  0.78558473  0.17307371  0.65150056    -0.72350
Al2395     Al  0.80914107  0.19316726  0.66880798     1.48980
C2396       C  0.76579536  0.14072654  0.64923403     0.94970
O2397       O  0.82786611  0.12019013  0.65076496    -0.78570
O2398       O  0.87838582  0.16861708  0.68568231    -0.72130
Al2399     Al  0.80642099  0.12222924  0.66787362     1.90120
O2400       O  0.88191027  0.15744168  0.65714416    -0.71190
O2401       O  0.88377614  0.22966625  0.68044550    -0.71050
O2402       O  0.88129266  0.21529930  0.65198470    -0.76710
O2403       O  0.83044419  0.21635574  0.68615148    -0.74910
O2404       O  0.83098182  0.16878055  0.66854119    -1.11040
O2405       O  0.76976486  0.15988987  0.67980233    -0.70240
C2406       C  0.76357666  0.13292087  0.68661707     1.00480
C2407       C  0.86033447  0.13262038  0.64928533     0.96880
Al2408     Al  0.87746549  0.19093628  0.66882742     1.55560
O2409       O  0.76886927  0.11852818  0.65641485    -0.74860
C2410       C  0.86312483  0.23535110  0.68771737     1.01040
C2411       C  0.86458842  0.13584493  0.68664382     0.95920
O2412       O  0.83850247  0.11541604  0.67909722    -0.80180
C2413       C  0.85215020  0.09212288  0.62961908    -0.14270
C2414       C  0.87349736  0.11686064  0.63893724    -0.29450
H2415       H  0.82512127  0.08579869  0.62872692     0.14750
H2416       H  0.90105679  0.12492867  0.63934515     0.15320
C2417       C  0.82355681  0.01907178  0.57391473    -0.11110
C2418       C  0.83779313  0.02632536  0.58531181    -0.12670
C2419       C  0.90912415  0.26626310  0.63063974    -0.14270
C2420       C  0.88485739  0.26362119  0.63992026    -0.29450
H2421       H  0.91500140  0.24528534  0.62982001     0.14750
H2422       H  0.87711181  0.28327206  0.64019230     0.15320
C2423       C  0.97757374  0.30800836  0.57425919    -0.11110
C2424       C  0.97107501  0.31509445  0.58575851    -0.12670
C2425       C  0.73456997  0.15020394  0.62979616    -0.14270
C2426       C  0.73730328  0.12828121  0.63873523    -0.29450
H2427       H  0.75564094  0.17732094  0.62925042     0.14750
H2428       H  0.71749629  0.10065238  0.63871884     0.15320
C2429       C  0.69197647  0.18077095  0.57469102    -0.11110
C2430       C  0.68410317  0.16612763  0.58597997    -0.12670
C2431       C  0.78057980  0.21195497  0.52093726    -0.14270
C2432       C  0.75603539  0.19149026  0.53037024    -0.29450
H2433       H  0.78976630  0.23978980  0.52059651     0.14750
H2434       H  0.74863166  0.16413658  0.53123121     0.15320
C2435       C  0.80881515  0.07032727  0.53024589    -0.14270
C2436       C  0.78718004  0.07327462  0.52117938    -0.29450
H2437       H  0.83593645  0.09132335  0.53101929     0.14750
H2438       H  0.75955024  0.05352118  0.52095817     0.15320
C2439       C  0.92539480  0.22020925  0.51996371    -0.14270
C2440       C  0.92889425  0.24505611  0.52921060    -0.29450
H2441       H  0.94449110  0.21174929  0.51977650     0.14750
H2442       H  0.90841374  0.25164234  0.52990696     0.15320
C2443       C  0.72342203  0.08643937  0.70282149    -0.14270
C2444       C  0.73205391  0.11564036  0.69555520    -0.29450
H2445       H  0.74231850  0.07789491  0.70401121     0.14750
H2446       H  0.71378962  0.12511674  0.69499959     0.15320
C2447       C  0.57971942  0.47995153  0.79573047    -0.14270
C2448       C  0.55746096  0.45928741  0.80580473    -0.29450
H2449       H  0.58505920  0.50661864  0.79463601     0.14750
H2450       H  0.54992790  0.43188906  0.80638241     0.15320
C2451       C  0.63976826  0.49075191  0.75020499    -0.11110
C2452       C  0.64516805  0.00311627  0.73901871    -0.12670
C2453       C  0.85824762  0.27554891  0.70479787    -0.14270
C2454       C  0.87804982  0.26685207  0.69688772    -0.29450
H2455       H  0.83071842  0.25662293  0.70645956     0.14750
H2456       H  0.90591765  0.28538563  0.69590243     0.15320
C2457       C  0.89073594  0.44231106  0.79659173    -0.14270
C2458       C  0.91823566  0.43933209  0.80017900    -0.29450
H2459       H  0.88481832  0.45950434  0.80278164     0.14750
H2460       H  0.92246480  0.42002523  0.79475140     0.15320
C2461       C  0.85413243  0.36567570  0.75323879    -0.11110
C2462       C  0.86169403  0.35759352  0.74208725    -0.12670
C2463       C  0.59310585  0.02167975  0.69622951    -0.14270
C2464       C  0.59028344  0.04367599  0.68734101    -0.29450
H2465       H  0.57200552  0.99457053  0.69676043     0.14750
H2466       H  0.61009472  0.07129518  0.68732371     0.15320
C2467       C  0.92162929  0.40517422  0.69658076    -0.14270
C2468       C  0.94510767  0.40778295  0.68686878    -0.29450
H2469       H  0.91576520  0.42612689  0.69759746     0.14750
H2470       H  0.95292199  0.38819370  0.68639034     0.15320
C2471       C  0.91815669  0.02870811  0.62218838    -0.14270
C2472       C  0.94701853  0.04931196  0.62984449    -0.29450
H2473       H  0.90972668  0.00122992  0.62054986     0.14750
H2474       H  0.95628419  0.07712116  0.63086451     0.15320
C2475       C  0.59598842  0.05589911  0.63041473    -0.14270
C2476       C  0.60437507  0.08455936  0.62275510    -0.29450
H2477       H  0.61454913  0.04684071  0.63124251     0.14750
H2478       H  0.58524016  0.09267754  0.62126054     0.15320
C2479       C  0.97220016  0.39564992  0.62250427    -0.14270
C2480       C  0.95142835  0.40384326  0.62989692    -0.29450
H2481       H  0.99975868  0.41486152  0.62109778     0.14750
H2482       H  0.92358670  0.38498945  0.63066716     0.15320
C2483       C  0.52157716  0.09361887  0.79391727    -0.14270
C2484       C  0.54362881  0.09188493  0.80316995    -0.29450
H2485       H  0.49524190  0.07130416  0.79270477     0.14750
H2486       H  0.57059705  0.11310391  0.80397720     0.15320
C2487       C  0.88093987  0.12086785  0.69544461    -0.14270
C2488       C  0.90944807  0.14102894  0.70332196    -0.29450
H2489       H  0.87157356  0.09307008  0.69424400     0.14750
H2490       H  0.91796710  0.16847172  0.70514483     0.15320
C2491       C  0.97605422  0.07843042  0.69582082    -0.14270
C2492       C  0.95509931  0.05393036  0.68637631    -0.29450
H2493       H  0.00316065  0.08505681  0.69680385     0.14750
H2494       H  0.92745569  0.04552524  0.68592769     0.15320
C2495       C  0.98637880  0.14007352  0.74076382    -0.11110
C2496       C  0.99995592  0.14661698  0.75224554    -0.12670
C2497       C  0.76568447  0.35900944  0.78750765    -0.14270
C2498       C  0.75416438  0.37833742  0.79399250    -0.29450
H2499       H  0.75014975  0.33059027  0.78756944     0.14750
H2500       H  0.76949153  0.40672343  0.79332906     0.15320
C2501       C  0.61579588  0.38215402  0.79530957    -0.14270
C2502       C  0.63673185  0.40916797  0.78688296    -0.29450
H2503       H  0.58831236  0.37412635  0.79634832     0.14750
H2504       H  0.66375370  0.41614574  0.78517093     0.15320
C2505       C  0.57917295  0.22418960  0.78981145    -0.14270
C2506       C  0.60870204  0.23367711  0.79701861    -0.29450
H2507       H  0.56952345  0.24225965  0.78886160     0.14750
H2508       H  0.61917729  0.21620975  0.79734334     0.15320
C2509       C  0.52774775  0.42558299  0.87122186    -0.14270
C2510       C  0.54876032  0.45413086  0.86360774    -0.29450
H2511       H  0.50026208  0.41729772  0.87253808     0.14750
H2512       H  0.57652417  0.46313358  0.86287460     0.15320
C2513       C  0.61176037  0.37752876  0.85360744    -0.14270
C2514       C  0.58739738  0.35653053  0.86298429    -0.29450
H2515       H  0.62050429  0.40527592  0.85338600     0.14750
H2516       H  0.58051661  0.32930121  0.86371794     0.15320
C2517       C  0.51686258  0.32948552  0.91882109    -0.11110
C2518       C  0.52395749  0.34391398  0.90754086    -0.12670
C2519       C  0.89292487  0.47289538  0.86776000    -0.14270
C2520       C  0.89979909  0.45209619  0.85950015    -0.29450
H2521       H  0.91307952  0.50005494  0.86952099     0.14750
H2522       H  0.88049820  0.42441005  0.85847810     0.15320
C2523       C  0.75838871  0.38745540  0.85226795    -0.14270
C2524       C  0.76273510  0.41260677  0.86151952    -0.29450
H2525       H  0.77739561  0.37889221  0.85181095     0.14750
H2526       H  0.74247533  0.41942541  0.86255062     0.15320
C2527       C  0.81655284  0.47677938  0.90593926    -0.11110
C2528       C  0.80871478  0.48343959  0.91735605    -0.12670
C2529       C  0.57416539  0.10635802  0.86865327    -0.14270
C2530       C  0.54714372  0.09820543  0.85987500    -0.29450
H2531       H  0.58139101  0.08681858  0.87087523     0.14750
H2532       H  0.53845178  0.11680949  0.85817650     0.15320
C2533       C  0.64238104  0.23674351  0.86240687    -0.14270
C2534       C  0.62056211  0.24056663  0.85377839    -0.29450
H2535       H  0.66984379  0.25701732  0.86284556     0.14750
H2536       H  0.59272860  0.22149027  0.85389416     0.15320
C2537       C  0.65788935  0.18398579  0.90545553    -0.11110
C2538       C  0.67279839  0.19103297  0.91672008    -0.12670
C2539       C  0.71831604  0.42749415  0.97091403    -0.14270
C2540       C  0.74309783  0.43133174  0.96161007    -0.29450
H2541       H  0.70938564  0.44622488  0.97113191     0.14750
H2542       H  0.75023243  0.41124313  0.96086557     0.15320
C2543       C  0.70881718  0.28166334  0.97033695    -0.14270
C2544       C  0.68739564  0.25719715  0.96094461    -0.29450
H2545       H  0.73638404  0.28974082  0.97067159     0.14750
H2546       H  0.66038637  0.25095569  0.96008442     0.15320
C2547       C  0.57201124  0.29090764  0.97065334    -0.14270
C2548       C  0.56901285  0.31281827  0.96180932    -0.29450
H2549       H  0.55219178  0.26328890  0.97074040     0.14750
H2550       H  0.59008158  0.33992862  0.96119028     0.15320
C2551       C  0.88372116  0.12350247  0.13747330    -0.14270
C2552       C  0.90799843  0.14457285  0.12806192    -0.29450
H2553       H  0.87553629  0.09589704  0.13781490     0.14750
H2554       H  0.91434888  0.17161914  0.12720896     0.15320
C2555       C  0.55915511  0.25115749  0.03511840    -0.14270
C2556       C  0.56755839  0.27978178  0.02744661    -0.29450
H2557       H  0.57816711  0.24285031  0.03654209     0.14750
H2558       H  0.54911617  0.28900375  0.02668763     0.15320
C2559       C  0.97223958  0.15763208  0.08354367    -0.11110
C2560       C  0.97945069  0.17168561  0.07215097    -0.12670
C2561       C  0.73763590  0.11392019  0.13832081    -0.14270
C2562       C  0.73429713  0.08941322  0.12891974    -0.29450
H2563       H  0.71821713  0.12194960  0.13872278     0.14750
H2564       H  0.75501667  0.08321643  0.12798221     0.15320
C2565       C  0.71227478  0.43083648  0.02826008    -0.14270
C2566       C  0.69172638  0.43908487  0.03587292    -0.29450
H2567       H  0.74020494  0.44938324  0.02762052     0.14750
H2568       H  0.66409021  0.41999106  0.03714331     0.15320
C2569       C  0.68937080  0.01895734  0.07257991    -0.11110
C2570       C  0.68300620  0.02590071  0.08415146    -0.12670
C2571       C  0.85276079  0.26326284  0.12874999    -0.14270
C2572       C  0.87453995  0.26054479  0.13782455    -0.29450
H2573       H  0.82566188  0.24218965  0.12803315     0.14750
H2574       H  0.90216029  0.28032272  0.13798373     0.15320
C2575       C  0.74512801  0.30744188  0.03590552    -0.14270
C2576       C  0.71711314  0.28709885  0.02775019    -0.29450
H2577       H  0.75345832  0.33488043  0.03758100     0.14750
H2578       H  0.70783494  0.25928149  0.02674785     0.15320
C2579       C  0.82281025  0.30751422  0.07374138    -0.11110
C2580       C  0.83696798  0.31438445  0.08516553    -0.12670
C2581       C  0.78867975  0.21902248  0.01960722    -0.14270
C2582       C  0.80999964  0.24307830  0.02914471    -0.29450
H2583       H  0.76120228  0.21126441  0.01916154     0.14750
H2584       H  0.83687211  0.24896627  0.03013340     0.15320
C2585       C  0.77673250  0.07212376  0.01875371    -0.14270
C2586       C  0.75202081  0.06892809  0.02790839    -0.29450
H2587       H  0.78460818  0.05256890  0.01844477     0.14750
H2588       H  0.74592277  0.08974514  0.02876664     0.15320
C2589       C  0.92800520  0.18682226  0.02851339    -0.14270
C2590       C  0.92510513  0.20864315  0.01957395    -0.29450
H2591       H  0.90682523  0.15978155  0.02921253     0.14750
H2592       H  0.94507426  0.23620901  0.01941768     0.15320
C2593       C  0.92986034  0.21947130  0.96298665    -0.14270
C2594       C  0.93873511  0.24849349  0.95555621    -0.29450
H2595       H  0.94797130  0.20982600  0.96366854     0.14750
H2596       H  0.92003374  0.25724472  0.95424311     0.15320
C2597       C  0.78444687  0.06859487  0.96244115    -0.14270
C2598       C  0.80520171  0.06011043  0.95519130    -0.29450
H2599       H  0.75656474  0.04989670  0.96316963     0.14750
H2600       H  0.83280486  0.07926985  0.95385617     0.15320
C2601       C  0.78085322  0.21366757  0.96216374    -0.14270
C2602       C  0.75277767  0.19330394  0.95402900    -0.29450
H2603       H  0.79014425  0.24148238  0.96317426     0.14750
H2604       H  0.74447529  0.16586605  0.95236750     0.15320
C2605       C  0.91581740  0.27489765  0.20246279    -0.14270
C2606       C  0.88687180  0.26608840  0.19484580    -0.29450
H2607       H  0.92443306  0.25610067  0.20379605     0.14750
H2608       H  0.87739417  0.28434320  0.19418783     0.15320
C2609       C  0.52448976  0.43113559  0.29613163    -0.14270
C2610       C  0.54381137  0.45587226  0.30591218    -0.29450
H2611       H  0.49641514  0.42066822  0.29563940     0.14750
H2612       H  0.57210266  0.46820645  0.30595188     0.15320
C2613       C  0.99610098  0.35509099  0.23990826    -0.11110
C2614       C  0.51719874  0.36617125  0.25179462    -0.12670
C2615       C  0.72683237  0.14090900  0.20317729    -0.14270
C2616       C  0.73498792  0.12079414  0.19516353    -0.29450
H2617       H  0.74607314  0.16836097  0.20496738     0.14750
H2618       H  0.71614885  0.09298535  0.19405235     0.15320
C2619       C  0.55262373  0.09336409  0.30775091    -0.14270
C2620       C  0.57569015  0.09457989  0.29807746    -0.29450
H2621       H  0.54548084  0.11345486  0.30799757     0.14750
H2622       H  0.58044567  0.07285546  0.29723763     0.15320
C2623       C  0.63942418  0.14239090  0.25290596    -0.11110
C2624       C  0.64674158  0.13648046  0.24126677    -0.12670
C2625       C  0.97950496  0.40529250  0.19618271    -0.14270
C2626       C  0.95758289  0.40773491  0.18707846    -0.29450
H2627       H  0.00642271  0.42671308  0.19699034     0.14750
H2628       H  0.93011283  0.38753924  0.18679749     0.15320
C2629       C  0.59378411  0.05384332  0.18582144    -0.14270
C2630       C  0.59690409  0.07785581  0.19543815    -0.29450
H2631       H  0.61335877  0.04602430  0.18531687     0.14750
H2632       H  0.57605225  0.08382070  0.19651970     0.15320
C2633       C  0.91798036  0.39355504  0.12237742    -0.14270
C2634       C  0.94653133  0.40218188  0.13021985    -0.29450
H2635       H  0.90966730  0.41253181  0.12084783     0.14750
H2636       H  0.95584418  0.38383559  0.13111205     0.15320
C2637       C  0.59628235  0.04667793  0.12901128    -0.14270
C2638       C  0.60440415  0.02616018  0.12132957    -0.29450
H2639       H  0.61502160  0.07455539  0.12993742     0.14750
H2640       H  0.58519725  0.99859834  0.11976213     0.15320
C2641       C  0.95042336  0.04940671  0.12813618    -0.14270
C2642       C  0.97081794  0.07809702  0.12046764    -0.29450
H2643       H  0.92261219  0.04002341  0.12906571     0.14750
H2644       H  0.99828250  0.08660049  0.11889610     0.15320
C2645       C  0.85911614  0.08721512  0.20216721    -0.14270
C2646       C  0.87944185  0.11551102  0.19429993    -0.29450
H2647       H  0.83181758  0.07910566  0.20395774     0.14750
H2648       H  0.90712519  0.12446693  0.19316745     0.15320
C2649       C  0.92056888  0.01966299  0.19425492    -0.14270
C2650       C  0.94489005  0.04079382  0.18490011    -0.29450
H2651       H  0.91412223  0.99258662  0.19510751     0.14750
H2652       H  0.95313284  0.06842441  0.18462580     0.15320
C2653       C  0.90262698  0.47467606  0.29490599    -0.14270
C2654       C  0.90503618  0.45238732  0.30379257    -0.29450
H2655       H  0.92391562  0.50171482  0.29448491     0.14750
H2656       H  0.88495805  0.42485852  0.30373994     0.15320
C2657       C  0.85188136  0.49500808  0.25202067    -0.11110
C2658       C  0.86123522  0.01076898  0.23962913    -0.12670
C2659       C  0.76266566  0.38402437  0.29581743    -0.14270
C2660       C  0.77212440  0.41307038  0.28829540    -0.29450
H2661       H  0.78062883  0.37426271  0.29677540     0.14750
H2662       H  0.75363506  0.42201313  0.28677910     0.15320
C2663       C  0.60715993  0.36155806  0.29052618    -0.14270
C2664       C  0.61045383  0.39296377  0.28863621    -0.29450
H2665       H  0.58584973  0.33888193  0.28523538     0.14750
H2666       H  0.62998134  0.41505092  0.29483772     0.15320
C2667       C  0.61873664  0.23113055  0.29731989    -0.14270
C2668       C  0.63930838  0.22356798  0.28940003    -0.29450
H2669       H  0.59115217  0.21175528  0.29850635     0.14750
H2670       H  0.66646947  0.24336344  0.28752644     0.15320
C2671       C  0.57320941  0.46746823  0.37254700    -0.14270
C2672       C  0.54535575  0.44805305  0.36408026    -0.29450
H2673       H  0.58097177  0.49445217  0.37501888     0.14750
H2674       H  0.53686191  0.42061682  0.36227167     0.15320
C2675       C  0.63977136  0.40631342  0.36158509    -0.14270
C2676       C  0.61867965  0.38413406  0.35140970    -0.29450
H2677       H  0.66645268  0.41155094  0.36243181     0.14750
H2678       H  0.59120743  0.37639451  0.35109030     0.15320
C2679       C  0.74748919  0.05929585  0.45600602    -0.14270
C2680       C  0.77576370  0.06754009  0.46395639    -0.29450
H2681       H  0.73915192  0.07826930  0.45453330     0.14750
H2682       H  0.78501057  0.04911247  0.46472424     0.15320
C2683       C  0.65434097  0.46363905  0.40848122    -0.11110
C2684       C  0.67060636  0.47097036  0.41953324    -0.12670
C2685       C  0.93208311  0.18821722  0.45501183    -0.14270
C2686       C  0.92466515  0.20951415  0.46254930    -0.29450
H2687       H  0.91265748  0.16063972  0.45371050     0.14750
H2688       H  0.94379286  0.23734670  0.46318501     0.15320
C2689       C  0.52631804  0.08210482  0.36802547    -0.14270
C2690       C  0.55647952  0.11260195  0.36891271    -0.29450
H2691       H  0.50383554  0.07881635  0.37400043     0.14750
H2692       H  0.57785521  0.11683136  0.36193395     0.15320
C2693       C  0.61839322  0.24472696  0.35519162    -0.14270
C2694       C  0.59056771  0.23676232  0.36341520    -0.29450
H2695       H  0.63169922  0.22992942  0.35613142     0.14750
H2696       H  0.57828107  0.25262863  0.36310797     0.15320
C2697       C  0.51768406  0.17994309  0.41814105    -0.11110
C2698       C  0.52672386  0.17450722  0.40673969    -0.12670
C2699       C  0.78258705  0.21582488  0.46324421    -0.14270
C2700       C  0.80248414  0.24370435  0.45506998    -0.29450
H2701       H  0.75469250  0.20608171  0.46411767     0.14750
H2702       H  0.83003414  0.25258678  0.45351068     0.15320
C2703       C  0.88441326  0.40993341  0.36840406    -0.14270
C2704       C  0.89427156  0.43907801  0.36096898    -0.29450
H2705       H  0.90199645  0.39976198  0.36956681     0.14750
H2706       H  0.87725109  0.45005505  0.36049163     0.15320
C2707       C  0.75499850  0.35771325  0.36329185    -0.14270
C2708       C  0.75497302  0.37933170  0.35329922    -0.29450
H2709       H  0.73202208  0.33181777  0.36444424     0.14750
H2710       H  0.77648874  0.40613647  0.35252672     0.15320
C2711       C  0.79809110  0.31793668  0.41676947    -0.11110
C2712       C  0.80414428  0.33236680  0.40548049    -0.12670
C2713       C  0.56587938  0.26825935  0.47288647    -0.14270
C2714       C  0.56540310  0.24542779  0.46320576    -0.29450
H2715       H  0.54526325  0.27464937  0.47308030     0.14750
H2716       H  0.58749072  0.24125371  0.46244979     0.15320
C2717       C  0.68299423  0.40717347  0.46592090    -0.14270
C2718       C  0.71308175  0.43559472  0.46224274    -0.29450
H2719       H  0.65903990  0.40154687  0.46054165     0.14750
H2720       H  0.73649187  0.44272227  0.46839192     0.15320
C2721       C  0.73439220  0.30496813  0.46117082    -0.14270
C2722       C  0.71195822  0.28435139  0.47119661    -0.29450
H2723       H  0.73852751  0.33108396  0.45962264     0.14750
H2724       H  0.70596900  0.25750957  0.47234282     0.15320
C2725       C  0.71466584  0.43172932  0.52543536    -0.14270
C2726       C  0.74211132  0.43926651  0.53390033    -0.29450
H2727       H  0.70611362  0.45060663  0.52426438     0.14750
H2728       H  0.74906680  0.41939415  0.53578716     0.15320
C2729       C  0.55960589  0.30442786  0.53791336    -0.14270
C2730       C  0.56764864  0.28324528  0.53065122    -0.29450
H2731       H  0.57873789  0.33215860  0.53901743     0.14750
H2732       H  0.54894851  0.25529853  0.53014637     0.15320
C2733       C  0.69761909  0.26222015  0.53754954    -0.14270
C2734       C  0.71645865  0.28824397  0.52834467    -0.29450
H2735       H  0.67090821  0.25530722  0.54001458     0.14750
H2736       H  0.74374745  0.29662582  0.52639624     0.15320
O2737       O  0.67290407  0.89376576  0.51198366    -0.79640
C2738       C  0.70284062  0.80535113  0.48130624     0.99720
O2739       O  0.71528525  0.83768619  0.48343134    -0.68760
O2740       O  0.71528942  0.89583453  0.48933876    -0.72350
Al2741     Al  0.71145259  0.85786724  0.50056439     1.48980
C2742       C  0.69325249  0.89857716  0.48182590     0.94970
O2743       O  0.60205270  0.82019862  0.48910193    -0.78570
O2744       O  0.60402470  0.77932092  0.51152417    -0.72130
Al2745     Al  0.64033190  0.85439048  0.50060004     1.90120
O2746       O  0.61899798  0.78331260  0.48290125    -0.71190
O2747       O  0.66465775  0.78372912  0.51682584    -0.71050
O2748       O  0.67683636  0.78298548  0.48829868    -0.76710
O2749       O  0.71793353  0.82536784  0.51158648    -0.74910
O2750       O  0.66493925  0.83278903  0.50039885    -1.11040
O2751       O  0.71294483  0.88100440  0.51781468    -0.70240
C2752       C  0.69919822  0.89974406  0.51930200     1.00480
C2753       C  0.59917374  0.79565326  0.48120200     0.96880
Al2754     Al  0.64291043  0.78622815  0.49994242     1.55560
O2755       O  0.66086299  0.87828198  0.48359149    -0.74860
C2756       C  0.69735996  0.79811793  0.51839159     1.01040
C2757       C  0.59879208  0.79994287  0.51911193     0.95920
O2758       O  0.61732507  0.83264634  0.51764096    -0.80180
C2759       C  0.85583326  0.89795954  0.37576702     0.05290
C2760       C  0.85147543  0.88115486  0.38875807    -0.10860
C2761       C  0.81783637  0.85863891  0.39400879     0.02790
C2762       C  0.78835943  0.85211324  0.38616014    -0.09390
C2763       C  0.79225476  0.86859186  0.37313049     0.05280
C2764       C  0.82609454  0.89169318  0.36803121    -0.08810
H2765       H  0.87419954  0.88543070  0.39471525     0.10880
H2766       H  0.76238133  0.83390305  0.39011510     0.08400
H2767       H  0.82932686  0.90287211  0.35758544     0.08250
C2768       C  0.79694328  0.77123684  0.44985544     0.05290
C2769       C  0.77632872  0.77928698  0.45877579    -0.10860
C2770       C  0.76755893  0.80425381  0.45465651     0.02790
C2771       C  0.77868529  0.82048926  0.44152034    -0.09390
C2772       C  0.79812285  0.81177575  0.43244005     0.05280
C2773       C  0.80784673  0.78769442  0.43667320    -0.08810
H2774       H  0.76888806  0.76777314  0.46922082     0.10880
H2775       H  0.77195247  0.83978731  0.43831430     0.08400
H2776       H  0.82378699  0.78176093  0.42975121     0.08250
C2777       C  0.54243031  0.67973301  0.39156674     0.05290
C2778       C  0.55945258  0.70883937  0.38258364    -0.10860
C2779       C  0.57557204  0.70695379  0.37000186     0.02790
C2780       C  0.57402649  0.67541309  0.36640712    -0.09390
C2781       C  0.55664410  0.64595358  0.37500975     0.05280
C2782       C  0.54072707  0.64808127  0.38768466    -0.08810
H2783       H  0.56046172  0.73308985  0.38545636     0.10880
H2784       H  0.58467329  0.67287801  0.35639906     0.08400
H2785       H  0.52735234  0.62545463  0.39447716     0.08250
C2786       C  0.51308673  0.70194039  0.42971996     0.05290
C2787       C  0.98152060  0.69030101  0.43450555    -0.10860
C2788       C  0.97664135  0.70311763  0.44756573     0.02790
C2789       C  0.00601207  0.72461892  0.45604367    -0.09390
C2790       C  0.53797497  0.73679998  0.45126964     0.05280
C2791       C  0.54212613  0.72368399  0.43825584    -0.08810
H2792       H  0.95907708  0.67334411  0.42795042     0.10880
H2793       H  0.00220983  0.73264867  0.46646337     0.08400
H2794       H  0.56810343  0.73028093  0.43479128     0.08250
C2795       C  0.73457528  0.52380595  0.44846588     0.05290
C2796       C  0.71818209  0.99418203  0.45815006    -0.10860
C2797       C  0.69459615  0.96018278  0.45321949     0.02790
C2798       C  0.67841445  0.95573726  0.44003959    -0.09390
C2799       C  0.68576858  0.98479034  0.43180988     0.05280
C2800       C  0.71254603  0.51493505  0.43659097    -0.08810
H2801       H  0.72929218  0.99787993  0.46867403     0.10880
H2802       H  0.65998318  0.92957899  0.43618827     0.08400
H2803       H  0.71183211  0.53537686  0.43064705     0.08250
C2804       C  0.63739132  0.95822928  0.39339093     0.05290
C2805       C  0.64479469  0.93667710  0.38490521    -0.10860
C2806       C  0.62756413  0.92348692  0.37190989     0.02790
C2807       C  0.60259094  0.93209756  0.36753140    -0.09390
C2808       C  0.59532067  0.95409725  0.37595903     0.05280
C2809       C  0.61303594  0.96725920  0.38884835    -0.08810
H2810       H  0.66434844  0.93050787  0.38834486     0.10880
H2811       H  0.59067863  0.92382663  0.35715144     0.08400
H2812       H  0.60799830  0.98465102  0.39528773     0.08250
O2813       O  0.73400299  0.85144622  0.31389342    -0.79640
C2814       C  0.63452011  0.86827025  0.34168544     0.99720
O2815       O  0.66735461  0.88282886  0.34069920    -0.68760
O2816       O  0.72895293  0.88917198  0.33641858    -0.72350
Al2817     Al  0.69179152  0.88395536  0.32414587     1.48980
C2818       C  0.73153348  0.86730512  0.34405338     0.94970
O2819       O  0.65898837  0.77529460  0.33352551    -0.78570
O2820       O  0.62224387  0.77700679  0.30863401    -0.72130
Al2821     Al  0.69376693  0.81583874  0.32362757     1.90120
O2822       O  0.61726698  0.78689538  0.33770889    -0.71190
O2823       O  0.62340339  0.83683465  0.30446080    -0.71050
O2824       O  0.61465746  0.84377465  0.33321377    -0.76710
O2825       O  0.65993746  0.88976286  0.31238908    -0.74910
O2826       O  0.66945093  0.83754352  0.32291977    -1.11040
O2827       O  0.71841248  0.88924342  0.30761729    -0.70240
C2828       C  0.73857020  0.87701383  0.30647014     1.00480
C2829       C  0.63215419  0.76982333  0.34036490     0.96880
Al2830     Al  0.62312899  0.81301696  0.32111406     1.55560
O2831       O  0.71254538  0.83493721  0.34167505    -0.74860
C2832       C  0.63548994  0.86943926  0.30414906     1.01040
C2833       C  0.64653687  0.77527725  0.30213084     0.95920
O2834       O  0.67792888  0.79481593  0.30570002    -0.80180
C2835       C  0.85062783  0.98201394  0.26485693     0.05290
C2836       C  0.88007007  0.98856811  0.27275762    -0.10860
C2837       C  0.87603203  0.97240686  0.28587040     0.02790
C2838       C  0.84223167  0.94993885  0.29104737    -0.09390
C2839       C  0.81258692  0.94342566  0.28323205     0.05280
C2840       C  0.81693556  0.95983013  0.27015203    -0.08810
H2841       H  0.90609431  0.00626549  0.26871775     0.10880
H2842       H  0.83896517  0.93912465  0.30156990     0.08400
H2843       H  0.79421840  0.95522210  0.26410289     0.08250
C2844       C  0.86856285  0.52544788  0.22698934     0.05290
C2845       C  0.88954408  0.51754341  0.21843505    -0.10860
C2846       C  0.90106238  0.53326097  0.20518937     0.02790
C2847       C  0.89117322  0.55703045  0.20050116    -0.09390
C2848       C  0.86947369  0.56465917  0.20890047     0.05280
C2849       C  0.85802933  0.54852070  0.22214575    -0.08810
H2850       H  0.89691650  0.49904061  0.22209455     0.10880
H2851       H  0.89850672  0.56788405  0.18995784     0.08400
H2852       H  0.84103629  0.55391210  0.22864034     0.08250
O2853       O  0.94759681  0.94934896  0.13842854    -0.79640
C2854       C  0.56443726  0.54011571  0.17707887     0.99720
O2855       O  0.56137171  0.51490889  0.16953686    -0.68760
O2856       O  0.00079579  0.95315307  0.17242314    -0.72350
Al2857     Al  0.52270594  0.97829842  0.15658715     1.48980
C2858       C  0.96845001  0.93347885  0.17450596     0.94970
O2859       O  0.94885223  0.49804911  0.17475587    -0.78570
O2860       O  0.99827381  0.54919423  0.14036833    -0.72130
Al2861     Al  0.95035011  0.97383530  0.15554388     1.90120
O2862       O  0.98635054  0.55230230  0.16887256    -0.71190
O2863       O  0.55894301  0.55406517  0.14650959    -0.71050
O2864       O  0.54460166  0.55236558  0.17510586    -0.76710
O2865       O  0.54581616  0.99947753  0.13943922    -0.74910
O2866       O  0.99694911  0.99851770  0.15542571    -1.11040
O2867       O  0.98819838  0.93712425  0.14398153    -0.70240
C2868       C  0.96138421  0.93064430  0.13687198     1.00480
C2869       C  0.96124541  0.53051424  0.17643716     0.96880
Al2870     Al  0.52012895  0.54783035  0.15801969     1.55560
O2871       O  0.94634606  0.93625211  0.16706042    -0.74860
C2872       C  0.56419973  0.53302951  0.13922329     1.01040
C2873       C  0.96553773  0.53504583  0.13901404     0.95920
O2874       O  0.94506889  0.50872389  0.14634079    -0.80180
C2875       C  0.61891897  0.65175079  0.26782147     0.05290
C2876       C  0.60113248  0.62244140  0.27672226    -0.10860
C2877       C  0.58492891  0.62440706  0.28932218     0.02790
C2878       C  0.58709147  0.65619863  0.29297073    -0.09390
C2879       C  0.60522976  0.68584324  0.28451693     0.05280
C2880       C  0.62128085  0.68366297  0.27187000    -0.08810
H2881       H  0.59969760  0.59802484  0.27379740     0.10880
H2882       H  0.57639604  0.65880646  0.30295045     0.08400
H2883       H  0.63524452  0.70647322  0.26521295     0.08250
C2884       C  0.64971337  0.63228772  0.22914325     0.05290
C2885       C  0.62096659  0.61135374  0.22030887    -0.10860
C2886       C  0.62553304  0.59953244  0.20703868     0.02790
C2887       C  0.65947755  0.60908550  0.20257105    -0.09390
C2888       C  0.68887515  0.63052064  0.21106307     0.05280
C2889       C  0.68380391  0.64236676  0.22437073    -0.08810
H2890       H  0.59484146  0.60420350  0.22377929     0.10880
H2891       H  0.66329932  0.60170225  0.19202377     0.08400
H2892       H  0.70620757  0.65923561  0.23095639     0.08250
C2893       C  0.52722935  0.87512494  0.26431223     0.05290
C2894       C  0.55079509  0.86508656  0.26895035    -0.10860
C2895       C  0.56820494  0.87760140  0.28195346     0.02790
C2896       C  0.56136561  0.89990441  0.29039057    -0.09390
C2897       C  0.53717018  0.90947508  0.28592776     0.05280
C2898       C  0.52026627  0.89694714  0.27283192    -0.08810
H2899       H  0.55551587  0.84751370  0.26248827     0.10880
H2900       H  0.57304626  0.90775256  0.30082697     0.08400
H2901       H  0.50129599  0.90386491  0.26933193     0.08250
C2902       C  0.93578045  0.80994008  0.20752611     0.05290
C2903       C  0.95357563  0.81517473  0.22038515    -0.10860
C2904       C  0.97766694  0.84915321  0.22504351     0.02790
C2905       C  0.98485018  0.87797168  0.21666613    -0.09390
C2906       C  0.96744706  0.87316641  0.20373243     0.05280
C2907       C  0.94276035  0.83903917  0.19925763    -0.08810
H2908       H  0.94862342  0.79287447  0.22675067     0.10880
H2909       H  0.00408761  0.90416812  0.22019572     0.08400
H2910       H  0.93061347  0.83488060  0.18892812     0.08250
O2911       O  0.94966352  0.94895914  0.35090499    -0.79640
C2912       C  0.52908220  0.56235928  0.31954735     0.99720
O2913       O  0.50233200  0.55661286  0.32656435    -0.68760
O2914       O  0.95525768  0.00333094  0.31722576    -0.72350
Al2915     Al  0.97123178  0.51613141  0.33497904     1.48980
C2916       C  0.93544179  0.97108700  0.31481267     0.94970
O2917       O  0.49805503  0.95107459  0.31698403    -0.78570
O2918       O  0.54084016  0.99494784  0.35361599    -0.72130
Al2919     Al  0.97430150  0.95172381  0.33398867     1.90120
O2920       O  0.55073996  0.98888213  0.32489138    -0.71190
O2921       O  0.54007845  0.55483662  0.35132436    -0.71050
O2922       O  0.54442550  0.54574811  0.32217456    -0.76710
O2923       O  0.98688339  0.53689901  0.35292220    -0.74910
O2924       O  0.99926449  0.99828386  0.33456229    -1.11040
O2925       O  0.93773542  0.98975200  0.34536740    -0.70240
C2926       C  0.93132668  0.96312441  0.35246276     1.00480
C2927       C  0.53085174  0.96493254  0.31622093     0.96880
Al2928     Al  0.53932291  0.51945638  0.33862263     1.55560
O2929       O  0.93738310  0.94850934  0.32221553    -0.74860
C2930       C  0.51583549  0.55628233  0.35797359     1.01040
C2931       C  0.52831778  0.96229209  0.35370811     0.95920
O2932       O  0.50404587  0.94256638  0.34527714    -0.80180
O2933       O  0.89357287  0.67242811  0.97755585    -0.79640
C2934       C  0.81530430  0.70609228  0.01181837     0.99720
O2935       O  0.84619478  0.71799878  0.00771482    -0.68760
O2936       O  0.90068616  0.71562404  0.99977179    -0.72350
Al2937     Al  0.86115903  0.71264178  0.98984869     1.48980
C2938       C  0.90256960  0.69363459  0.00763474     0.94970
O2939       O  0.82161535  0.60275197  0.00120563    -0.78570
O2940       O  0.77864161  0.60598686  0.98010598    -0.72130
Al2941     Al  0.85509285  0.64061850  0.98947645     1.90120
O2942       O  0.78777152  0.62207094  0.00884959    -0.71190
O2943       O  0.78383706  0.66724068  0.97576102    -0.71050
O2944       O  0.78984196  0.68154202  0.00500288    -0.76710
O2945       O  0.82721768  0.72027517  0.98011922    -0.74910
O2946       O  0.83483680  0.66634686  0.99045792    -1.11040
O2947       O  0.87967814  0.71172558  0.97185226    -0.70240
C2948       C  0.89866213  0.69830712  0.97018509     1.00480
C2949       C  0.79846676  0.60071924  0.00965385     0.96880
Al2950     Al  0.78872048  0.64591612  0.99222995     1.55560
O2951       O  0.88114039  0.66127193  0.00621366    -0.74860
C2952       C  0.79891089  0.69973028  0.97374826     1.01040
C2953       C  0.79777120  0.59960704  0.97200483     0.95920
O2954       O  0.83069747  0.61776345  0.97277171    -0.80180
C2955       C  0.75905082  0.78775868  0.04203887     0.05290
C2956       C  0.75841676  0.76048451  0.03407593    -0.10860
C2957       C  0.77902256  0.74633457  0.03784290     0.02790
C2958       C  0.79986372  0.75885832  0.05017074    -0.09390
C2959       C  0.80041445  0.78588461  0.05835608     0.05280
C2960       C  0.78047489  0.80071682  0.05409905    -0.08810
H2961       H  0.74350541  0.75164658  0.02429588     0.10880
H2962       H  0.81563002  0.74777316  0.05336246     0.08400
H2963       H  0.78139294  0.82204467  0.06019688     0.08250
C2964       C  0.89396608  0.85338653  0.11404910     0.05290
C2965       C  0.87749269  0.84755531  0.10074617    -0.10860
C2966       C  0.85400907  0.81324791  0.09601244     0.02790
C2967       C  0.84606090  0.78484164  0.10479892    -0.09390
C2968       C  0.86196984  0.79013666  0.11812375     0.05280
C2969       C  0.88618141  0.82445545  0.12261309    -0.08810
H2970       H  0.88280719  0.86961284  0.09415273     0.10880
H2971       H  0.82713858  0.75849368  0.10130991     0.08400
H2972       H  0.89716771  0.82888333  0.13318721     0.08250
C2973       C  0.70144313  0.51305882  0.05944365     0.05290
C2974       C  0.72415474  0.54231238  0.05137230    -0.10860
C2975       C  0.73768372  0.53826166  0.03848118     0.02790
C2976       C  0.72301662  0.00415544  0.03248527    -0.09390
C2977       C  0.70140953  0.97490580  0.04090605     0.05280
C2978       C  0.68971320  0.97980253  0.05405948    -0.08810
H2979       H  0.73117699  0.56830636  0.05510010     0.10880
H2980       H  0.73059973  0.00025293  0.02199409     0.08400
H2981       H  0.67288507  0.95738805  0.06056419     0.08250
C2982       C  0.67565864  0.53616137  0.09792155     0.05290
C2983       C  0.64195886  0.52677134  0.10262661    -0.10860
C2984       C  0.63743776  0.53907972  0.11579153     0.02790
C2985       C  0.66691234  0.56036513  0.12425287    -0.09390
C2986       C  0.70062776  0.56926155  0.11973700     0.05280
C2987       C  0.70475101  0.55694129  0.10655114    -0.08810
H2988       H  0.61938054  0.50996498  0.09610086     0.10880
H2989       H  0.66330282  0.56806445  0.13477299     0.08400
H2990       H  0.73066574  0.56349596  0.10300838     0.08250
C2991       C  0.52008386  0.72829045  0.04172488     0.05290
C2992       C  0.99669578  0.72031480  0.03304741    -0.10860
C2993       C  0.96258560  0.69623505  0.03751283     0.02790
C2994       C  0.95761969  0.68050087  0.05080160    -0.09390
C2995       C  0.98627012  0.68878458  0.05959046     0.05280
C2996       C  0.51561880  0.71115796  0.05471331    -0.08810
H2997       H  0.00094795  0.73104353  0.02247426     0.10880
H2998       H  0.93137119  0.66172804  0.05430997     0.08400
H2999       H  0.53830196  0.71652666  0.06096192     0.08250
C3000       C  0.95632784  0.60110570  0.11625105     0.05290
C3001       C  0.96929469  0.61838525  0.10331240    -0.10860
C3002       C  0.95898959  0.64147733  0.09829525     0.02790
C3003       C  0.93637829  0.64810827  0.10644069    -0.09390
C3004       C  0.92327056  0.63125191  0.11945762     0.05280
C3005       C  0.93312976  0.60748745  0.12422780    -0.08810
H3006       H  0.98749716  0.61396979  0.09719763     0.10880
H3007       H  0.92922709  0.66670629  0.10270501     0.08400
H3008       H  0.92479468  0.59585687  0.13460014     0.08250
O3009       O  0.83938969  0.72800272  0.17863815    -0.79640
C3010       C  0.86360778  0.63454547  0.14868508     0.99720
O3011       O  0.87671286  0.66712369  0.15027552    -0.68760
O3012       O  0.87992804  0.72697649  0.15573378    -0.72350
Al3013     Al  0.87531401  0.68928690  0.16733140     1.48980
C3014       C  0.85815699  0.73003519  0.14819479     0.94970
O3015       O  0.76636398  0.65403121  0.15669614    -0.78570
O3016       O  0.76764847  0.61457731  0.18013028    -0.72130
Al3017     Al  0.80535710  0.68845570  0.16774581     1.90120
O3018       O  0.78113820  0.61491257  0.15141814    -0.71190
O3019       O  0.82819829  0.61796826  0.18526654    -0.71050
O3020       O  0.83863596  0.61336562  0.15652821    -0.76710
O3021       O  0.88143355  0.65692011  0.17868991    -0.74910
O3022       O  0.82877302  0.66557639  0.16786743    -1.11040
O3023       O  0.87887658  0.71416293  0.18427244    -0.70240
C3024       C  0.86592737  0.73363764  0.18572412     1.00480
C3025       C  0.76231674  0.62823980  0.14933192     0.96880
Al3026     Al  0.80574605  0.61906297  0.16833284     1.55560
O3027       O  0.82573515  0.71075432  0.15029929    -0.74860
C3028       C  0.86089179  0.63119598  0.18627006     1.01040
C3029       C  0.76276896  0.63623231  0.18721901     0.95920
O3030       O  0.78198068  0.66868826  0.18519114    -0.80180
O3031       O  0.61350095  0.78216252  0.01696500    -0.79640
C3032       C  0.70062862  0.89756439  0.98187187     0.99720
O3033       O  0.67509212  0.89394441  0.98923066    -0.68760
O3034       O  0.61742105  0.83500368  0.98323521    -0.72350
Al3035     Al  0.64064023  0.85569085  0.00046316     1.48980
C3036       C  0.59816347  0.80259432  0.98098392     0.94970
O3037       O  0.66074580  0.78250112  0.98338733    -0.78570
O3038       O  0.71047985  0.83317059  0.01810910    -0.72130
Al3039     Al  0.63854223  0.78513235  0.00020816     1.90120
O3040       O  0.71448558  0.82060427  0.98976106    -0.71190
O3041       O  0.71529411  0.89341469  0.01199628    -0.71050
O3042       O  0.71315526  0.87788829  0.98373106    -0.76710
O3043       O  0.66170741  0.87930189  0.01767264    -0.74910
O3044       O  0.66281266  0.83169023  0.00054538    -1.11040
O3045       O  0.60105827  0.82262973  0.01156817    -0.70240
C3046       C  0.59489172  0.79594804  0.01860947     1.00480
C3047       C  0.69328833  0.79542577  0.98197745     0.96880
Al3048     Al  0.70942976  0.85434241  0.00089625     1.55560
O3049       O  0.60142940  0.78067872  0.98828041    -0.74860
C3050       C  0.69434348  0.89883612  0.01913907     1.01040
C3051       C  0.69552246  0.80051120  0.01985735     0.95920
O3052       O  0.67012603  0.77956855  0.01211294    -0.80180
C3053       C  0.59886732  0.64269446  0.87561466     0.05290
C3054       C  0.61701546  0.64663812  0.88834910    -0.10860
C3055       C  0.64257444  0.68003418  0.89318194     0.02790
C3056       C  0.65058085  0.70956581  0.88510576    -0.09390
C3057       C  0.63282110  0.70616699  0.87237259     0.05280
C3058       C  0.60685335  0.67265153  0.86773672    -0.08810
H3059       H  0.61151534  0.62372408  0.89439792     0.10880
H3060       H  0.67085647  0.73526754  0.88869381     0.08400
H3061       H  0.59473872  0.66962710  0.85747521     0.08250
C3062       C  0.73225055  0.70666026  0.94999905     0.05290
C3063       C  0.71614268  0.69402482  0.93668629    -0.10860
C3064       C  0.69211285  0.70312097  0.93151951     0.02790
C3065       C  0.68341946  0.72396776  0.93983647    -0.09390
C3066       C  0.69900564  0.73658657  0.95312176     0.05280
C3067       C  0.72362343  0.72809091  0.95809272    -0.08810
H3068       H  0.72215589  0.67708894  0.93042936     0.10880
H3069       H  0.66424375  0.73024434  0.93598650     0.08400
H3070       H  0.73426071  0.73611475  0.96868311     0.08250
C3071       C  0.81999029  0.96483120  0.89320789     0.05290
C3072       C  0.79076868  0.94433600  0.88466259    -0.10860
C3073       C  0.79468403  0.93232767  0.87140609     0.02790
C3074       C  0.82833244  0.94130601  0.86672175    -0.09390
C3075       C  0.85788075  0.96256559  0.87517086     0.05280
C3076       C  0.85355486  0.97449298  0.88840062    -0.08810
H3077       H  0.76490446  0.93756093  0.88836785     0.10880
H3078       H  0.83177374  0.93355525  0.85617969     0.08400
H3079       H  0.87619336  0.99107339  0.89494174     0.08250
C3080       C  0.79596264  0.98617186  0.93211328     0.05290
C3081       C  0.80289162  0.52119750  0.93535219    -0.10860
C3082       C  0.78927159  0.52524264  0.94825289     0.02790
C3083       C  0.76855481  0.49558324  0.95660388    -0.09390
C3084       C  0.76181741  0.96108568  0.95348169     0.05280
C3085       C  0.77478776  0.95701397  0.94047739    -0.08810
H3086       H  0.81935462  0.54393561  0.92894461     0.10880
H3087       H  0.75995581  0.49888449  0.96696652     0.08400
H3088       H  0.76838687  0.93111629  0.93685911     0.08250
C3089       C  0.53999579  0.90090054  0.87602476     0.05290
C3090       C  0.52680046  0.88332675  0.88884578    -0.10860
C3091       C  0.53553423  0.85872904  0.89332985     0.02790
C3092       C  0.55662473  0.85081314  0.88484654    -0.09390
C3093       C  0.56985317  0.86794765  0.87194613     0.05280
C3094       C  0.56167279  0.89325307  0.86762299    -0.08810
H3095       H  0.50971569  0.88872121  0.89528331     0.10880
H3096       H  0.56261786  0.83113200  0.88826257     0.08400
H3097       H  0.57012725  0.90526106  0.85731629     0.08250
C3098       C  0.97425900  0.76834932  0.94864060     0.05290
C3099       C  0.50222912  0.77620220  0.95716637    -0.10860
C3100       C  0.53599938  0.80070117  0.95243690     0.02790
C3101       C  0.53993802  0.81760982  0.93953369    -0.09390
C3102       C  0.51061739  0.81013353  0.93139239     0.05280
C3103       C  0.97890945  0.78712345  0.93616577    -0.08810
H3104       H  0.00000017  0.76222601  0.96683008     0.10880
H3105       H  0.56589223  0.83671258  0.93583822     0.08400
H3106       H  0.95636773  0.78232349  0.92993808     0.08250
O3107       O  0.61558165  0.78451707  0.80761816    -0.79640
C3108       C  0.73097465  0.87128680  0.84292474     0.99720
O3109       O  0.72721455  0.84564115  0.83554517    -0.68760
O3110       O  0.66825070  0.78824296  0.84165478    -0.72350
Al3111     Al  0.68873464  0.81109457  0.82438553     1.48980
C3112       C  0.63583039  0.76887772  0.84372129     0.94970
O3113       O  0.61598320  0.83135254  0.84134584    -0.78570
O3114       O  0.66610664  0.88081671  0.80680001    -0.72130
Al3115     Al  0.61836014  0.80930302  0.82445770     1.90120
O3116       O  0.65402325  0.88518820  0.83523437    -0.71190
O3117       O  0.72618785  0.88543665  0.81275104    -0.71050
O3118       O  0.71137349  0.88388119  0.84108379    -0.76710
O3119       O  0.71194703  0.83162233  0.80714080    -0.74910
O3120       O  0.66485456  0.83342070  0.82425944    -1.11040
O3121       O  0.65555867  0.77152390  0.81333769    -0.70240
C3122       C  0.62916850  0.76565717  0.80612319     1.00480
C3123       C  0.62891232  0.86390141  0.84292051     0.96880
Al3124     Al  0.68752689  0.87995756  0.82397110     1.55560
O3125       O  0.61397873  0.77198934  0.83624131    -0.74860
C3126       C  0.73118910  0.86422072  0.80551940     1.01040
C3127       C  0.63349901  0.86686560  0.80520435     0.95920
O3128       O  0.61248972  0.84131670  0.81276556    -0.80180
C3129       C  0.93088900  0.62768233  0.70870835     0.05290
C3130       C  0.94650643  0.63935673  0.72206718    -0.10860
C3131       C  0.96985647  0.62942157  0.72708646     0.02790
C3132       C  0.97856558  0.60882723  0.71865308    -0.09390
C3133       C  0.96331209  0.59712925  0.70529337     0.05280
C3134       C  0.93929549  0.60643965  0.70038408    -0.08810
H3135       H  0.94051669  0.65606024  0.72850534     0.10880
H3136       H  0.99728090  0.60190174  0.72249156     0.08400
H3137       H  0.92884901  0.59904614  0.68973392     0.08250
C3138       C  0.56160812  0.69024483  0.78327888     0.05290
C3139       C  0.54322293  0.68591900  0.77066423    -0.10860
C3140       C  0.52010366  0.65228357  0.76542691     0.02790
C3141       C  0.51458758  0.62281935  0.77292960    -0.09390
C3142       C  0.53257502  0.62667914  0.78561496     0.05280
C3143       C  0.55619077  0.66053027  0.79072068    -0.08810
H3144       H  0.54692033  0.70866285  0.76494723     0.10880
H3145       H  0.49606587  0.59683365  0.76894048     0.08400
H3146       H  0.56858842  0.66384967  0.80093915     0.08250
O3147       O  0.55933873  0.51240607  0.64596641    -0.79640
C3148       C  0.96721903  0.53800197  0.67639306     0.99720
O3149       O  0.99969712  0.55127686  0.67461303    -0.68760
O3150       O  0.55979936  0.55399863  0.66904560    -0.72350
Al3151     Al  0.52169273  0.54925640  0.65748848     1.48980
C3152       C  0.56316186  0.53217669  0.67641193     0.94970
O3153       O  0.98746627  0.94101660  0.66785237    -0.78570
O3154       O  0.94677296  0.94190494  0.64521072    -0.72130
Al3155     Al  0.51918105  0.97823159  0.65732296     1.90120
O3156       O  0.94913508  0.95643677  0.67364609    -0.71190
O3157       O  0.94803401  0.49995496  0.64038632    -0.71050
O3158       O  0.94561057  0.51256981  0.66882539    -0.76710
O3159       O  0.98800179  0.55382762  0.64610839    -0.74910
O3160       O  0.99695841  0.50204751  0.65749773    -1.11040
O3161       O  0.54595446  0.55217335  0.64041718    -0.70240
C3162       C  0.56503899  0.53883190  0.63884665     1.00480
C3163       C  0.96195037  0.93698375  0.67533796     0.96880
Al3164     Al  0.95241013  0.98048923  0.65668925     1.55560
O3165       O  0.54358083  0.49974232  0.67432497    -0.74860
C3166       C  0.96166025  0.53255530  0.63881793     1.01040
C3167       C  0.96781881  0.93671156  0.63800033     0.95920
O3168       O  0.00043877  0.95645636  0.63943798    -0.80180
C3169       C  0.84347797  0.86958749  0.76443980     0.05290
C3170       C  0.80980656  0.85930185  0.76937133    -0.10860
C3171       C  0.80537678  0.87084298  0.78269180     0.02790
C3172       C  0.83493465  0.89233032  0.79109991    -0.09390
C3173       C  0.86868736  0.90199549  0.78631959     0.05280
C3174       C  0.87269890  0.89039285  0.77296920    -0.08810
H3175       H  0.78717092  0.84250876  0.76286751     0.10880
H3176       H  0.83143266  0.89970192  0.80170374     0.08400
H3177       H  0.89863387  0.89761972  0.76919953     0.08250
C3178       C  0.87116997  0.81007864  0.70771468     0.05290
C3179       C  0.85843213  0.81463745  0.72068538    -0.10860
C3180       C  0.86766506  0.84824054  0.72542804     0.02790
C3181       C  0.88879947  0.87739544  0.71703771    -0.09390
C3182       C  0.90168775  0.87334998  0.70399265     0.05280
C3183       C  0.89302178  0.83954717  0.69942671    -0.08810
H3184       H  0.84134681  0.79205574  0.72706412     0.10880
H3185       H  0.89519453  0.90328754  0.72065966     0.08400
H3186       H  0.90128905  0.83587792  0.68904392     0.08250
C3187       C  0.62770252  0.93316159  0.78190124     0.05290
C3188       C  0.60776705  0.94218342  0.79069359    -0.10860
C3189       C  0.59848341  0.96654257  0.78629026     0.02790
C3190       C  0.60932713  0.98192085  0.77294919    -0.09390
C3191       C  0.62904793  0.97298256  0.76407059     0.05280
C3192       C  0.63867564  0.94898136  0.76860006    -0.08810
H3193       H  0.60133629  0.93173835  0.80132018     0.10880
H3194       H  0.60247668  0.00095070  0.76948066     0.08400
H3195       H  0.65456396  0.94264090  0.76183461     0.08250
C3196       C  0.68927456  0.56442307  0.70789184     0.05290
C3197       C  0.65952923  0.55792857  0.70008806    -0.10860
C3198       C  0.62572384  0.53357969  0.70485709     0.02790
C3199       C  0.62187534  0.51610704  0.71763785    -0.09390
C3200       C  0.65127118  0.52280181  0.72559144     0.05280
C3201       C  0.68492469  0.54654010  0.72062909    -0.08810
H3202       H  0.66282808  0.57001662  0.68983615     0.10880
H3203       H  0.59592762  0.49708833  0.72136267     0.08400
H3204       H  0.70766211  0.55104863  0.72663633     0.08250
O3205       O  0.50765321  0.56100659  0.84348490    -0.79640
C3206       C  0.54207910  0.97075450  0.81631235     0.99720
O3207       O  0.55327782  0.00315932  0.81737662    -0.68760
O3208       O  0.55373161  0.56345561  0.82221869    -0.72350
Al3209     Al  0.54918152  0.52631508  0.83420360     1.48980
C3210       C  0.53238704  0.56487581  0.81382508     0.94970
O3211       O  0.93536295  0.98734515  0.82286777    -0.78570
O3212       O  0.93717142  0.94740960  0.84544032    -0.72130
Al3213     Al  0.97499669  0.51866659  0.83139025     1.90120
O3214       O  0.95145464  0.94951319  0.81699973    -0.71190
O3215       O  0.50150681  0.95487958  0.85225658    -0.71050
O3216       O  0.00904758  0.94864255  0.82246375    -0.76710
O3217       O  0.55569982  0.49530065  0.84636009    -0.74910
O3218       O  0.99815798  0.99980520  0.83388860    -1.11040
O3219       O  0.54824391  0.55002926  0.85074168    -0.70240
C3220       C  0.53340233  0.56789885  0.85150586     1.00480
C3221       C  0.93173524  0.96200912  0.81530055     0.96880
Al3222     Al  0.97570286  0.95327974  0.83399899     1.55560
O3223       O  0.50013436  0.54339947  0.81483558    -0.74860
C3224       C  0.53415270  0.96879320  0.85379974     1.01040
C3225       C  0.93213077  0.96850915  0.85274452     0.95920
O3226       O  0.95137483  0.00113709  0.85123205    -0.80180
O3227       O  0.78623585  0.61990226  0.47238237    -0.79640
C3228       C  0.90073970  0.70400792  0.50871591     0.99720
O3229       O  0.89696835  0.67837361  0.50131584    -0.68760
O3230       O  0.83738204  0.62107940  0.50664626    -0.72350
Al3231     Al  0.85899750  0.64481536  0.48961671     1.48980
C3232       C  0.80486661  0.60175224  0.50840976     0.94970
O3233       O  0.78666617  0.66509146  0.50677653    -0.78570
O3234       O  0.83694180  0.71574761  0.47228372    -0.72130
Al3235     Al  0.78890838  0.64375667  0.48956776     1.90120
O3236       O  0.82495803  0.71912572  0.50089439    -0.71190
O3237       O  0.89742600  0.71951660  0.47793506    -0.71050
O3238       O  0.88219505  0.71757483  0.50646533    -0.76710
O3239       O  0.88352160  0.66572070  0.47261985    -0.74910
O3240       O  0.83553155  0.66758118  0.48947332    -1.11040
O3241       O  0.82619488  0.60661361  0.47794711    -0.70240
C3242       C  0.80044620  0.60169423  0.47047497     1.00480
C3243       C  0.79965465  0.69764926  0.50851303     0.96880
Al3244     Al  0.85852763  0.71412258  0.48936808     1.55560
O3245       O  0.78358980  0.60538832  0.50080172    -0.74860
C3246       C  0.90270911  0.69820178  0.47083080     1.01040
C3247       C  0.80428477  0.70262008  0.47110477     0.95920
O3248       O  0.78339637  0.67664165  0.47846099    -0.80180
C3249       C  0.70655688  0.73126224  0.54058022     0.05290
C3250       C  0.72955976  0.72464649  0.53257842    -0.10860
C3251       C  0.73953080  0.70102853  0.53744875     0.02790
C3252       C  0.72683641  0.68469401  0.55057406    -0.09390
C3253       C  0.70449381  0.69166348  0.55872638     0.05280
C3254       C  0.69399707  0.71450142  0.55362532    -0.08810
H3255       H  0.73767935  0.73600560  0.52214892     0.10880
H3256       H  0.73412928  0.66627082  0.55439821     0.08400
H3257       H  0.67599479  0.71916004  0.55976919     0.08250
C3258       C  0.64043416  0.60611043  0.61582473     0.05290
C3259       C  0.64510803  0.62243505  0.60263137    -0.10860
C3260       C  0.67896447  0.64552265  0.59757777     0.02790
C3261       C  0.70812300  0.65326399  0.60591213    -0.09390
C3262       C  0.70393301  0.63735338  0.61909729     0.05280
C3263       C  0.67003650  0.61361853  0.62395648    -0.08810
H3264       H  0.62252270  0.61709270  0.59632025     0.10880
H3265       H  0.73419451  0.67171259  0.60211654     0.08400
H3266       H  0.66657204  0.60265938  0.63446168     0.08250
C3267       C  0.98695809  0.79753119  0.55985059     0.05290
C3268       C  0.95777102  0.77617140  0.55136907    -0.10860
C3269       C  0.96186125  0.76327398  0.53832028     0.02790
C3270       C  0.49634171  0.77219479  0.53429714    -0.09390
C3271       C  0.52590280  0.79326786  0.54274833     0.05280
C3272       C  0.52164954  0.80590630  0.55585566    -0.08810
H3273       H  0.93186505  0.76965220  0.55490843     0.10880
H3274       H  0.49978819  0.76430323  0.52379032     0.08400
H3275       H  0.54432089  0.82259415  0.56235996     0.08250
C3276       C  0.96423128  0.82218380  0.59849595     0.05290
C3277       C  0.97385069  0.85592501  0.60321960    -0.10860
C3278       C  0.96151619  0.86071091  0.61626104     0.02790
C3279       C  0.93978035  0.83136747  0.62462832    -0.08910
C3280       C  0.93081473  0.79749336  0.62006242     0.05280
C3281       C  0.94325769  0.79320224  0.60697230    -0.08810
H3282       H  0.99080226  0.87838725  0.59676240     0.10880
H3283       H  0.93171953  0.83516068  0.63503795     0.08400
H3284       H  0.93655128  0.76720960  0.60335954     0.08250
C3285       C  0.76628194  0.97563886  0.54228176     0.05290
C3286       C  0.77393787  0.50476955  0.53222106    -0.10860
C3287       C  0.79918909  0.53820742  0.53721942     0.02790
C3288       C  0.81522334  0.54136738  0.55037059    -0.09390
C3289       C  0.80627084  0.51166471  0.55849051     0.05280
C3290       C  0.78332446  0.98022240  0.55530074    -0.08810
H3291       H  0.76294386  0.50190488  0.52172313     0.10880
H3292       H  0.83488033  0.56702848  0.55426195     0.08400
H3293       H  0.77834685  0.95759323  0.56144124     0.08250
C3294       C  0.89436185  0.53851154  0.61543371     0.05290
C3295       C  0.87738986  0.52545468  0.60233475    -0.10860
C3296       C  0.85368871  0.53506209  0.59729599     0.02790
C3297       C  0.84614816  0.55689365  0.60555564    -0.09390
C3298       C  0.86268026  0.56999038  0.61866911     0.05280
C3299       C  0.88692614  0.56086426  0.62350097    -0.08810
H3300       H  0.88260802  0.50790571  0.59610640     0.10880
H3301       H  0.82725668  0.56363950  0.60178469     0.08400
H3302       H  0.89828708  0.56924352  0.63396948     0.08250
O3303       O  0.78316365  0.61834406  0.68349368    -0.79640
C3304       C  0.86963211  0.73377824  0.64837740     0.99720
O3305       O  0.84429984  0.73019357  0.65585723    -0.68760
O3306       O  0.78619899  0.67147330  0.64979442    -0.72350
Al3307     Al  0.80990396  0.69179686  0.66701997     1.48980
C3308       C  0.76622324  0.63908705  0.64769406     0.94970
O3309       O  0.82795252  0.61816747  0.64927632    -0.78570
O3310       O  0.87946636  0.66778491  0.68387188    -0.72130
Al3311     Al  0.80698428  0.62084929  0.66641379     1.90120
O3312       O  0.88221108  0.65567521  0.65530506    -0.71190
O3313       O  0.88477408  0.72857436  0.67838451    -0.71050
O3314       O  0.88181178  0.71373709  0.64996988    -0.76710
O3315       O  0.83141405  0.71494382  0.68424048    -0.74910
O3316       O  0.83167678  0.66740543  0.66679836    -1.11040
O3317       O  0.77055423  0.65878524  0.67815027    -0.70240
C3318       C  0.76455156  0.63216040  0.68518490     1.00480
C3319       C  0.86036061  0.63067038  0.64757856     0.96880
Al3320     Al  0.87819036  0.68956967  0.66690698     1.55560
O3321       O  0.76924377  0.61698542  0.65498558    -0.74860
C3322       C  0.86409675  0.73418877  0.68566224     1.01040
C3323       C  0.86532541  0.63507960  0.68520565     0.95920
O3324       O  0.83926040  0.61436779  0.67769611    -0.80180
C3325       C  0.85162591  0.59017909  0.62776574    -0.14270
C3326       C  0.87315029  0.61476745  0.63712267    -0.29450
H3327       H  0.82470512  0.58417739  0.62685402     0.14750
H3328       H  0.90064186  0.62256816  0.63750865     0.15320
C3329       C  0.82271614  0.51600284  0.57216123    -0.11110
C3330       C  0.83697224  0.52300994  0.58362015    -0.12670
C3331       C  0.91117727  0.76655361  0.62924417    -0.14270
C3332       C  0.88613476  0.76301998  0.63830031    -0.29450
H3333       H  0.91745293  0.74585634  0.62841509     0.14750
H3334       H  0.87813007  0.78247405  0.63860834     0.15320
C3335       C  0.98202641  0.80943500  0.57340911    -0.11110
C3336       C  0.97535586  0.81681413  0.58485987    -0.12670
C3337       C  0.73504200  0.64835002  0.62818690    -0.14270
C3338       C  0.73757993  0.62656313  0.63727139    -0.29450
H3339       H  0.75635035  0.67531893  0.62744302     0.14750
H3340       H  0.71749390  0.59903653  0.63743288     0.15320
C3341       C  0.69232455  0.67509427  0.57231449    -0.11110
C3342       C  0.68445556  0.66134531  0.58379535    -0.12670
C3343       C  0.78387255  0.71098293  0.51885549    -0.14270
C3344       C  0.75976811  0.68993436  0.52836522    -0.29450
H3345       H  0.79135891  0.73837796  0.51827562     0.14750
H3346       H  0.75418609  0.66318354  0.52944437     0.15320
C3347       C  0.81175017  0.56964638  0.52822744    -0.14270
C3348       C  0.79106611  0.57317971  0.51881946    -0.29450
H3349       H  0.83899999  0.59019836  0.52923207     0.14750
H3350       H  0.76330328  0.55393051  0.51838477     0.15320
C3351       C  0.92851281  0.71925561  0.51954426    -0.14270
C3352       C  0.93115198  0.74359294  0.52890188    -0.29450
H3353       H  0.94782899  0.71108052  0.51949227     0.14750
H3354       H  0.91043145  0.74984773  0.52951886     0.15320
C3355       C  0.72483222  0.58671744  0.70197568    -0.14270
C3356       C  0.73334316  0.61543697  0.69435072    -0.29450
H3357       H  0.74366805  0.57812843  0.70325417     0.14750
H3358       H  0.71516286  0.62500352  0.69372278     0.15320
C3359       C  0.57993299  0.97831990  0.79589898    -0.14270
C3360       C  0.55769104  0.95767349  0.80596621    -0.29450
H3361       H  0.58474230  0.00476251  0.79463374     0.14750
H3362       H  0.55071434  0.93045356  0.80671825     0.15320
C3363       C  0.63913302  0.98878877  0.75032796    -0.11110
C3364       C  0.64646082  0.50525429  0.73890091    -0.12670
C3365       C  0.85821922  0.77426341  0.70216682    -0.14270
C3366       C  0.87872120  0.76586380  0.69464535    -0.29450
H3367       H  0.83068443  0.75504012  0.70363167     0.14750
H3368       H  0.90656973  0.78458635  0.69379318     0.15320
C3369       C  0.89972964  0.92154627  0.79556602    -0.14270
C3370       C  0.90281487  0.94590235  0.80498699    -0.29450
H3371       H  0.92064277  0.91564435  0.79457292     0.14750
H3372       H  0.88317808  0.95364535  0.80541287     0.15320
C3373       C  0.84857333  0.85925518  0.75057105    -0.11110
C3374       C  0.85588968  0.85308844  0.73901237    -0.12670
C3375       C  0.59442510  0.52307160  0.69592493    -0.14270
C3376       C  0.59177499  0.54492601  0.68688910    -0.29450
H3377       H  0.57312517  0.49608398  0.69661209     0.14750
H3378       H  0.61179229  0.57246760  0.68672200     0.15320
C3379       C  0.92119267  0.90435315  0.69478365    -0.14270
C3380       C  0.94596458  0.90790341  0.68554369    -0.29450
H3381       H  0.91484603  0.92499138  0.69566818     0.14750
H3382       H  0.95412697  0.88857575  0.68517396     0.15320
C3383       C  0.91680003  0.52579406  0.62142491    -0.14270
C3384       C  0.94498985  0.54649472  0.62949226    -0.29450
H3385       H  0.90865209  0.49836087  0.61988975     0.14750
H3386       H  0.95411860  0.57429653  0.63035927     0.15320
C3387       C  0.59641720  0.55576734  0.62972343    -0.14270
C3388       C  0.60474875  0.58399399  0.62175879    -0.29450
H3389       H  0.61488277  0.54660018  0.63060268     0.14750
H3390       H  0.58572964  0.59222487  0.62018143     0.15320
C3391       C  0.97440757  0.89657677  0.62174344    -0.14270
C3392       C  0.95364856  0.90496010  0.62908309    -0.29450
H3393       H  0.00196621  0.91581254  0.62036447     0.14750
H3394       H  0.92580390  0.88613118  0.62984291     0.15320
C3395       C  0.52315969  0.59521071  0.79412902    -0.14270
C3396       C  0.54504978  0.59344210  0.80347233    -0.29450
H3397       H  0.49665283  0.57313808  0.79301672     0.14750
H3398       H  0.57217551  0.61434674  0.80416898     0.15320
C3399       C  0.88115065  0.62043559  0.69450800    -0.14270
C3400       C  0.90883227  0.64072189  0.70281355    -0.29450
H3401       H  0.87206601  0.59267924  0.69339843     0.14750
H3402       H  0.91691666  0.66807117  0.70459110     0.15320
C3403       C  0.97521805  0.57797626  0.69613405    -0.14270
C3404       C  0.95396003  0.55334494  0.68679988    -0.29450
H3405       H  0.00231448  0.58453216  0.69706094     0.14750
H3406       H  0.92632224  0.54500237  0.68645582     0.15320
C3407       C  0.98521481  0.64003955  0.74090214    -0.11110
C3408       C  0.99919752  0.64618731  0.75230966    -0.12670
C3409       C  0.76981767  0.85769085  0.78842550    -0.14270
C3410       C  0.76210948  0.87832706  0.79627263    -0.29450
H3411       H  0.75049601  0.83014937  0.78691102     0.14750
H3412       H  0.78097127  0.90619275  0.79710521     0.15320
C3413       C  0.61936201  0.88254202  0.79556558    -0.14270
C3414       C  0.64002562  0.91012699  0.78737550    -0.29450
H3415       H  0.59172050  0.87393311  0.79653555     0.14750
H3416       H  0.66727949  0.91788407  0.78573322     0.15320
C3417       C  0.58352816  0.72570112  0.78939159    -0.14270
C3418       C  0.61253185  0.73444941  0.79689984    -0.29450
H3419       H  0.57455123  0.74428279  0.78830069     0.14750
H3420       H  0.62244981  0.71653243  0.79736295     0.15320
C3421       C  0.52753180  0.92385250  0.87063025    -0.14270
C3422       C  0.54842538  0.95281477  0.86321813    -0.29450
H3423       H  0.49992999  0.91516383  0.87186321     0.14750
H3424       H  0.57627686  0.96219760  0.86254600     0.15320
C3425       C  0.61352897  0.87744870  0.85326472    -0.14270
C3426       C  0.58905428  0.85632436  0.86259770    -0.29450
H3427       H  0.62183572  0.90507891  0.85291697     0.14750
H3428       H  0.58261107  0.82923950  0.86341603     0.15320
C3429       C  0.51564053  0.82701718  0.91796755    -0.11110
C3430       C  0.52317406  0.84151226  0.90669291    -0.12670
C3431       C  0.89342848  0.97525584  0.86959301    -0.14270
C3432       C  0.90109450  0.95439320  0.86190062    -0.29450
H3433       H  0.91287173  0.00276892  0.87109579     0.14750
H3434       H  0.88211084  0.92656670  0.86104189     0.15320
C3435       C  0.75996401  0.88762551  0.85316873    -0.14270
C3436       C  0.76363870  0.91287132  0.86219948    -0.29450
H3437       H  0.77921357  0.87935493  0.85299576     0.14750
H3438       H  0.74315597  0.91944214  0.86295509     0.15320
C3439       C  0.81499998  0.97526774  0.90702196    -0.11110
C3440       C  0.80772821  0.98137733  0.91856915    -0.12670
C3441       C  0.57555303  0.60708377  0.86962460    -0.14270
C3442       C  0.54865288  0.59934789  0.86078391    -0.29450
H3443       H  0.58252705  0.58731836  0.87174320     0.14750
H3444       H  0.54017202  0.61815441  0.85919956     0.15320
C3445       C  0.64442495  0.73738055  0.86332120    -0.14270
C3446       C  0.62286082  0.74075217  0.85432506    -0.29450
H3447       H  0.67179223  0.75785674  0.86387970     0.14750
H3448       H  0.59506224  0.72156802  0.85430078     0.15320
C3449       C  0.66072177  0.68449263  0.90645543    -0.11110
C3450       C  0.67571136  0.69127091  0.91776156    -0.12670
C3451       C  0.71696840  0.92652304  0.97165157    -0.14270
C3452       C  0.74212761  0.93009690  0.96264912    -0.29450
H3453       H  0.70877321  0.94583495  0.97183746     0.14750
H3454       H  0.74859701  0.90952501  0.96192202     0.15320
C3455       C  0.70713316  0.78008163  0.97175385    -0.14270
C3456       C  0.68656089  0.75559898  0.96219468    -0.29450
H3457       H  0.73475346  0.78849590  0.97239582     0.14750
H3458       H  0.65951073  0.74901078  0.96101227     0.15320
C3459       C  0.56997583  0.78982430  0.97037374    -0.14270
C3460       C  0.56712204  0.81171125  0.96147117    -0.29450
H3461       H  0.55032429  0.76214423  0.97033979     0.14750
H3462       H  0.58803242  0.83890733  0.96094826     0.15320
C3463       C  0.87901366  0.62103253  0.13821991    -0.14270
C3464       C  0.90285770  0.64206660  0.12859689    -0.29450
H3465       H  0.87163566  0.59367728  0.13883882     0.14750
H3466       H  0.90828826  0.66876874  0.12752544     0.15320
C3467       C  0.55570245  0.75108197  0.03584060    -0.14270
C3468       C  0.56359761  0.77909749  0.02778303    -0.29450
H3469       H  0.57506826  0.74331330  0.03744830     0.14750
H3470       H  0.54491961  0.78797767  0.02685382     0.15320
C3471       C  0.97163290  0.65864912  0.08481014    -0.11110
C3472       C  0.97999791  0.67276610  0.07339058    -0.12670
C3473       C  0.73405691  0.61268775  0.13870553    -0.14270
C3474       C  0.73133472  0.58856514  0.12920717    -0.29450
H3475       H  0.71467822  0.62077625  0.13892137     0.14750
H3476       H  0.75213814  0.58245873  0.12841424     0.15320
C3477       C  0.70871528  0.93055929  0.02803001    -0.14270
C3478       C  0.68814168  0.93905518  0.03541065    -0.29450
H3479       H  0.73659635  0.94925030  0.02725395     0.14750
H3480       H  0.66055375  0.91996783  0.03682868     0.15320
C3481       C  0.68878897  0.51805747  0.07285584    -0.11110
C3482       C  0.68098394  0.52484275  0.08423305    -0.12670
C3483       C  0.85018155  0.75986600  0.12775624    -0.14270
C3484       C  0.87127502  0.75789280  0.13744393    -0.29450
H3485       H  0.82317879  0.73865914  0.12689025     0.14750
H3486       H  0.89886833  0.77773510  0.13775498     0.15320
C3487       C  0.73990294  0.80467459  0.03674931    -0.14270
C3488       C  0.70909441  0.78556081  0.03006424    -0.29450
H3489       H  0.75303193  0.83308802  0.03690729     0.14750
H3490       H  0.69568391  0.75715391  0.03051465     0.15320
C3491       C  0.82103912  0.79808355  0.07122585    -0.11110
C3492       C  0.83695342  0.80658233  0.08233669    -0.12670
C3493       C  0.81048216  0.72305962  0.02444828    -0.14270
C3494       C  0.78012176  0.72083264  0.02783369    -0.29450
H3495       H  0.83405836  0.74165362  0.03013254     0.14750
H3496       H  0.75713517  0.70439937  0.02138490     0.15320
C3497       C  0.78234740  0.57178555  0.01991673    -0.14270
C3498       C  0.75868556  0.56946425  0.02951703    -0.29450
H3499       H  0.78896541  0.55136274  0.01912294     0.14750
H3500       H  0.75388803  0.59110466  0.03070522     0.15320
C3501       C  0.93216493  0.68508114  0.02797098    -0.14270
C3502       C  0.93114468  0.70617625  0.01805955    -0.29450
H3503       H  0.91003050  0.65866305  0.02911312     0.14750
H3504       H  0.95190545  0.73337068  0.01745517     0.15320
C3505       C  0.92977515  0.71537551  0.96100794    -0.14270
C3506       C  0.93844731  0.74492283  0.95400131    -0.29450
H3507       H  0.94817066  0.70604955  0.96148060     0.14750
H3508       H  0.91956875  0.75353958  0.95297331     0.15320
C3509       C  0.78162905  0.56822933  0.96272422    -0.14270
C3510       C  0.80113164  0.56093266  0.95388832    -0.29450
H3511       H  0.75426093  0.54890687  0.96444827     0.14750
H3512       H  0.82793925  0.58109855  0.95161756     0.15320
C3513       C  0.78202202  0.71426802  0.96480680    -0.14270
C3514       C  0.75470812  0.69409997  0.95618982    -0.29450
H3515       H  0.79077673  0.74190254  0.96608760     0.14750
H3516       H  0.74744063  0.66704930  0.95417690     0.15320
C3517       C  0.91269594  0.77398254  0.20205084    -0.14270
C3518       C  0.88362431  0.76542532  0.19461811    -0.29450
H3519       H  0.92092133  0.75490214  0.20346647     0.14750
H3520       H  0.87459368  0.78402549  0.19385769     0.15320
C3521       C  0.52575995  0.92876574  0.29539055    -0.14270
C3522       C  0.54586175  0.95139188  0.30564580    -0.29450
H3523       H  0.49912241  0.92334165  0.29402176     0.14750
H3524       H  0.57317210  0.95891034  0.30668724     0.15320
C3525       C  0.99490369  0.85476200  0.23850842    -0.11110
C3526       C  0.50984851  0.86307902  0.25082758    -0.12670
C3527       C  0.72472082  0.64328130  0.20516732    -0.14270
C3528       C  0.73200042  0.62272039  0.19682675    -0.29450
H3529       H  0.74444063  0.67063106  0.20680280     0.14750
H3530       H  0.71279750  0.59497445  0.19593648     0.15320
C3531       C  0.54283622  0.58960037  0.30851037    -0.14270
C3532       C  0.56811088  0.59413861  0.29920761    -0.29450
H3533       H  0.53156820  0.60632566  0.30809062     0.14750
H3534       H  0.57725374  0.57555516  0.29901795     0.15320
C3535       C  0.63373166  0.64839397  0.25442119    -0.11110
C3536       C  0.64324665  0.64278337  0.24304586    -0.12670
C3537       C  0.97800465  0.90369712  0.19442994    -0.14270
C3538       C  0.95604337  0.90554955  0.18515622    -0.29450
H3539       H  0.00496357  0.92509202  0.19509342     0.14750
H3540       H  0.92851600  0.88550642  0.18502494     0.15320
C3541       C  0.59276373  0.55625919  0.18775363    -0.14270
C3542       C  0.59491732  0.57988591  0.19743479    -0.29450
H3543       H  0.61267873  0.54889250  0.18743718     0.14750
H3544       H  0.57363289  0.58526230  0.19830944     0.15320
C3545       C  0.91613829  0.88963590  0.11972848    -0.14270
C3546       C  0.94450520  0.89872101  0.12783789    -0.29450
H3547       H  0.90771859  0.90842016  0.11790643     0.14750
H3548       H  0.95380659  0.88041342  0.12895306     0.15320
C3549       C  0.59467903  0.54719225  0.12966966    -0.14270
C3550       C  0.60186362  0.52652918  0.12150501    -0.29450
H3551       H  0.61374445  0.57498003  0.13057419     0.14750
H3552       H  0.58221773  0.49911805  0.11991937     0.15320
C3553       C  0.95045140  0.55103816  0.12994867    -0.14270
C3554       C  0.97029190  0.57970046  0.12215349    -0.29450
H3555       H  0.92249826  0.54095815  0.13080645     0.14750
H3556       H  0.99792416  0.58885602  0.12066242     0.15320
C3557       C  0.85585448  0.58655865  0.20322871    -0.14270
C3558       C  0.87573280  0.61476215  0.19520319    -0.29450
H3559       H  0.82849791  0.57814440  0.20505068     0.14750
H3560       H  0.90347443  0.62404299  0.19403172     0.15320
C3561       C  0.92063690  0.52194354  0.19593819    -0.14270
C3562       C  0.94517050  0.54342549  0.18671802    -0.29450
H3563       H  0.91463725  0.49500537  0.19679638     0.14750
H3564       H  0.95293824  0.57092850  0.18639762     0.15320
C3565       C  0.90707322  0.98192312  0.29473907    -0.14270
C3566       C  0.90808400  0.95942062  0.30391233    -0.29450
H3567       H  0.92905992  0.00856213  0.29409375     0.14750
H3568       H  0.88732203  0.93214148  0.30395487     0.15320
C3569       C  0.85527169  0.99783112  0.25120986    -0.11110
C3570       C  0.85810433  0.50945867  0.24071613    -0.12670
C3571       C  0.76955665  0.89392354  0.29734218    -0.14270
C3572       C  0.77727148  0.92177008  0.28932137    -0.29450
H3573       H  0.78807071  0.88479111  0.29812957     0.14750
H3574       H  0.75814652  0.92989333  0.28780243     0.15320
C3575       C  0.61901319  0.88425847  0.29527920    -0.14270
C3576       C  0.59043820  0.86418289  0.28738315    -0.29450
H3577       H  0.62827765  0.91201647  0.29655130     0.14750
H3578       H  0.58188759  0.83674177  0.28554325     0.15320
C3579       C  0.63928310  0.74844665  0.29107105    -0.14270
C3580       C  0.60829260  0.71875772  0.29013234    -0.29450
H3581       H  0.66167032  0.75002424  0.28560625     0.14750
H3582       H  0.58677295  0.71637949  0.29656001     0.15320
C3583       C  0.57265100  0.96699971  0.37059425    -0.14270
C3584       C  0.54439936  0.94700840  0.36252243    -0.29450
H3585       H  0.58078364  0.99428520  0.37260973     0.14750
H3586       H  0.53540529  0.91936914  0.36102985     0.15320
C3587       C  0.63939211  0.90458554  0.36243227    -0.14270
C3588       C  0.61932304  0.88152618  0.35229365    -0.29450
H3589       H  0.66627488  0.91066681  0.36368338     0.14750
H3590       H  0.59181574  0.87334999  0.35138517     0.15320
C3591       C  0.75471495  0.56038482  0.45381529    -0.14270
C3592       C  0.78562892  0.57215069  0.46038269    -0.29450
H3593       H  0.74231342  0.57615418  0.45373252     0.14750
H3594       H  0.79839199  0.55672952  0.45983070     0.15320
C3595       C  0.65497512  0.97098818  0.40677915    -0.11110
C3596       C  0.66941556  0.97913554  0.41814072    -0.12670
C3597       C  0.94085920  0.69103557  0.45323285    -0.14270
C3598       C  0.93375362  0.71185020  0.46145347    -0.29450
H3599       H  0.92088303  0.66379575  0.45152960     0.14750
H3600       H  0.95312581  0.73951968  0.46245265     0.15320
C3601       C  0.52328692  0.58311381  0.36901011    -0.14270
C3602       C  0.55399282  0.61318118  0.36952714    -0.29450
H3603       H  0.50105676  0.58125302  0.37471443     0.14750
H3604       H  0.57523204  0.61575767  0.36285094     0.15320
C3605       C  0.61797663  0.74235448  0.35122349    -0.14270
C3606       C  0.59202889  0.73720794  0.36018917    -0.29450
H3607       H  0.62959440  0.72595312  0.35181943     0.14750
H3608       H  0.58237672  0.75538131  0.36024752     0.15320
C3609       C  0.51889796  0.68985871  0.41614787    -0.11110
C3610       C  0.52788334  0.68325971  0.40490867    -0.12670
C3611       C  0.78981538  0.71958130  0.46235552    -0.14270
C3612       C  0.81014242  0.74856094  0.45487838    -0.29450
H3613       H  0.76205744  0.71034907  0.46341841     0.14750
H3614       H  0.83758734  0.75715756  0.45317303     0.15320
C3615       C  0.89126058  0.91889288  0.36958377    -0.14270
C3616       C  0.90012470  0.94714213  0.36161542    -0.29450
H3617       H  0.90968911  0.90985671  0.37105083     0.14750
H3618       H  0.88237522  0.95720712  0.36084388     0.15320
C3619       C  0.76101615  0.85810422  0.36420154    -0.14270
C3620       C  0.75894673  0.87999879  0.35502310    -0.29450
H3621       H  0.73968648  0.83111695  0.36482332     0.14750
H3622       H  0.77906126  0.90751827  0.35494763     0.15320
C3623       C  0.80768854  0.82775684  0.41875237    -0.11110
C3624       C  0.81333000  0.84176107  0.40740183    -0.12670
C3625       C  0.57103899  0.78023826  0.47045810    -0.14270
C3626       C  0.56876682  0.75668506  0.46072836    -0.29450
H3627       H  0.55124610  0.78776439  0.47086652     0.14750
H3628       H  0.58994957  0.75116512  0.45983022     0.15320
C3629       C  0.70573830  0.92720097  0.47152199    -0.14270
C3630       C  0.68394775  0.92923601  0.46223526    -0.29450
H3631       H  0.73313233  0.94758446  0.47192429     0.14750
H3632       H  0.65716765  0.90760514  0.46127862     0.15320
C3633       C  0.74907866  0.81584039  0.46427779    -0.14270
C3634       C  0.71980942  0.79319340  0.47115134    -0.29450
H3635       H  0.75921313  0.84383048  0.46525637     0.14750
H3636       H  0.70889076  0.76519208  0.46968296     0.15320
C3637       C  0.71566644  0.93113544  0.52850451    -0.14270
C3638       C  0.74427652  0.93992766  0.53631386    -0.29450
H3639       H  0.70608120  0.94928333  0.52772213     0.14750
H3640       H  0.75296096  0.92120709  0.53773540     0.15320
C3641       C  0.56139473  0.80566246  0.53705993    -0.14270
C3642       C  0.56838232  0.78526052  0.52866398    -0.29450
H3643       H  0.58119498  0.83294816  0.53883195     0.14750
H3644       H  0.54923265  0.75754630  0.52754417     0.15320
C3645       C  0.69246919  0.75251554  0.53468700    -0.14270
C3646       C  0.71238139  0.78154387  0.52712809    -0.29450
H3647       H  0.66480645  0.74324076  0.53615749     0.14750
H3648       H  0.74036709  0.79174323  0.52631767     0.15320
loop_ 
_geom_bond_atom_site_label_1 
_geom_bond_atom_site_label_2 
_geom_bond_distance 
_geom_bond_site_symmetry_2 
_ccdc_geom_bond_type 
O1           C16   1.265       .  A
O1           Al9   1.935       .  S
C2           O12   1.260       .  A
C2            O3   1.258       .  A
C2          C898   1.464       .  S
O3           Al5   1.887       .  S
O4            C6   1.271       .  A
O4           Al5   1.954       .  S
Al5          O13   1.948       .  S
Al5          O15   1.893       .  S
Al5          O14   1.776       .  S
C6           O19   1.253       .  A
C6          C893   1.474       .  S
O7           C17   1.266       .  A
O7           Al9   1.934       .  S
O8           C21   1.262       .  A
O8          Al18   1.920       .  S
Al9          O22   1.890       .  S
Al9          O19   1.867       .  S
Al9          O14   1.774       .  S
O10          C17   1.260       .  A
O10         Al18   1.885       .  S
O11          C20   1.263       .  A
O11         Al18   1.889       .  S
O12         Al18   1.910       .  S
O13          C20   1.271       .  A
O14         Al18   1.775       .  S
O15          C16   1.259       .  A
C16         C901   1.478       .  S
C17         C889   1.470       .  S
C20         C910   1.479       .  S
C21          O22   1.261       .  A
C21         C906   1.468       .  S
C23         C879   1.485       .  S
C23          C24   1.406       .  A
C23          C28   1.406       .  A
C24          C25   1.405       .  A
C24          H29   1.084       .  S
C25          C26   1.403       .  A
C25         C888   1.445       .  S
C26          C27   1.402       .  A
C26          H30   1.084       .  S
C27         C883   1.483       .  S
C27          C28   1.402       .  A
C28          H31   1.082       .  S
C32         C876   1.482       .  S
C32          C33   1.396       .  A
C32          C37   1.411       .  A
C33          C34   1.402       .  A
C33          H38   1.084       .  S
C34         C897   1.479       .  S
C34          C35   1.399       .  A
C35          C36   1.402       .  A
C35          H39   1.084       .  S
C36          C37   1.409       .  A
C36         C887   1.445       .  S
C37          H40   1.083       .  S
C41          C42   1.400       .  A
C41          C46   1.400       .  A
C41         C874   1.437       .  S
C42          C43   1.401       .  A
C42          H47   1.084       .  S
C43         C870   1.483       .  S
C43          C44   1.406       .  A
C44          C45   1.407       .  A
C44          H48   1.083       .  S
C45         C866   1.478       .  S
C45          C46   1.401       .  A
C46          H49   1.084       .  S
C50          C55   1.401       .  A
C50        C1875   1.401   1_455  A
C50         C873   1.437       .  S
C51          C52   1.406       .  A
C51        C1874   1.407       .  A
C51          H56   1.084       .  S
C52         C861   1.482       .  S
C52          C53   1.402       .  A
C53        C1878   1.400       .  A
C53          H57   1.082       .  S
C54         C890   1.481       .  S
C54          C55   1.401       .  A
C54        C1877   1.403   1_455  A
C55          H58   1.084       .  S
C59         C855   1.482       .  S
C59          C64   1.404       .  A
C59         C972   1.408   1_545  A
C60          C61   1.394       .  A
C60         C971   1.404       .  A
C60          H65   1.084       .  S
C61         C894   1.484       .  S
C61          C62   1.410       .  A
C62          C63   1.408       .  A
C62          H66   1.083       .  S
C63         C976   1.404       .  A
C63         C860   1.447       .  S
C64         C975   1.402   1_545  A
C64          H67   1.084       .  S
C68          C69   1.400       .  A
C68          C73   1.407       .  A
C68         C859   1.447       .  S
C69          C70   1.400       .  A
C69          H74   1.084       .  S
C70         C851   1.484       .  S
C70          C71   1.406       .  A
C71          C72   1.409       .  A
C71          H75   1.083       .  S
C72         C847   1.490       .  S
C72          C73   1.409       .  A
C73          H76   1.084       .  S
O77          C92   1.264       .  A
O77         Al85   1.926       .  S
C78          O88   1.263       .  A
C78          O79   1.261       .  A
C78         C852   1.475       .  S
O79         Al81   1.896       .  S
O80          C82   1.265       .  A
O80         Al81   1.932       .  S
Al81         O89   1.925       .  S
Al81         O91   1.897       .  S
Al81         O90   1.779       .  S
C82          O95   1.259       .  A
C82         C884   1.474       .  S
O83          C93   1.264       .  A
O83         Al85   1.927       .  S
O84          C97   1.264       .  A
O84         Al94   1.926       .  S
Al85         O98   1.895       .  S
Al85         O95   1.887       .  S
Al85         O90   1.777       .  S
O86          C93   1.262       .  A
O86         Al94   1.894       .  S
O87          C96   1.262       .  A
O87         Al94   1.897       .  S
O88         Al94   1.927       .  S
O89          C96   1.265       .  A
O90         Al94   1.779       .  S
O91          C92   1.261       .  A
C92         C835   1.475       .  S
C93         C869   1.474       .  S
C96         C839   1.473       .  S
C97          O98   1.261       .  A
C97         C843   1.474       .  S
C99         C100   1.403       .  A
C99         C104   1.404       .  A
C99         C833   1.445       .  S
C100        C101   1.403       .  A
C100        H105   1.084       .  S
C101        C829   1.484       .  S
C101        C102   1.405       .  A
C102        C103   1.407       .  A
C102        H106   1.083       .  S
C103        C836   1.484       .  S
C103        C104   1.405       .  A
C104        H107   1.084       .  S
C108        C109   1.397       .  A
C108        C113   1.398       .  A
C108        C834   1.431       .  S
C109        C110   1.397       .  A
C109        H114   1.085   1_545  S
C110        C825   1.477       .  S
C110        C111   1.405       .  A
C111        C112   1.407       .  A
C111        H115   1.083       .  S
C112        C821   1.475       .  S
C112        C113   1.400       .  A
C113        H116   1.084       .  S
O117        C132   1.261       .  A
O117       Al125   1.894       .  S
C118        O128   1.262       .  A
C118        O119   1.265       .  A
C118        C805   1.479       .  S
O119      Al1033   1.933   1_545  S
O120        C122   1.260       .  A
O120      Al1945   1.893       .  S
Al121       O129   1.894       .  S
Al121      O1031   1.932       .  S
Al121      O1944   1.892       .  S
Al121      O1955   1.928   1_455  S
Al121      O1954   1.778   1_455  S
C122        O135   1.266       .  A
C122        C802   1.479       .  S
O123        C133   1.261   1_565  A
O123      Al1037   1.889       .  S
O124        C137   1.262       .  A
O124      Al1958   1.896       .  S
Al125       O135   1.937       .  S
Al125      O1035   1.891       .  S
Al125      O1050   1.931       .  S
Al125       O130   1.777       .  S
O126        C133   1.262       .  A
O126      Al1958   1.920       .  S
O127        C136   1.263       .  A
O127       Al134   1.919       .  S
O128       Al134   1.898       .  S
O129       C1048   1.261       .  A
O130      Al1945   1.778       .  S
O130      Al2870   1.779       .  S
O131        C132   1.265       .  A
O131      Al1945   1.930       .  S
C132        C810   1.474       .  S
C133        C826   1.470       .  S
Al134      O1948   1.895   1_455  S
Al134      O1950   1.920   1_455  S
Al134      O2866   1.780   1_445  S
C136       O1041   1.262   1_545  A
C136        C813   1.472       .  S
C137        O138   1.264       .  A
C137        C817   1.474       .  S
O138      Al1037   1.925   1_545  S
C139        C140   1.401       .  A
C139        C144   1.401       .  A
C139        C799   1.440       .  S
C140        C141   1.402       .  A
C140        H145   1.084       .  S
C141        C796   1.484       .  S
C141        C142   1.407       .  A
C142        C143   1.408       .  A
C142        H146   1.083       .  S
C143        C844   1.480       .  S
C143        C144   1.402       .  A
C144        H147   1.084       .  S
C148        C149   1.401       .  A
C148        C153   1.400       .  A
C148        C800   1.440       .  S
C149        C150   1.402       .  A
C149        H154   1.084       .  S
C150        C806   1.486       .  S
C150        C151   1.408       .  A
C151        C152   1.410       .  A
C151        H155   1.083       .  S
C152        C791   1.482       .  S
C152        C153   1.402       .  A
C153        H156   1.084       .  S
C157        C158   1.402       .  A
C157        C162   1.401       .  A
C157        C790   1.443       .  S
C158        C159   1.404       .  A
C158        H163   1.084       .  S
C159        C840   1.482       .  S
C159        C160   1.408       .  A
C160        C161   1.405       .  A
C160        H164   1.083       .  S
C161        C785   1.484       .  S
C161        C162   1.403       .  A
C162        H165   1.084       .  S
C166        C781   1.493       .  S
C166        C167   1.412       .  A
C166        C171   1.408       .  A
C167        C168   1.410       .  A
C167        H172   1.084       .  S
C168        C169   1.403       .  A
C168        C789   1.455       .  S
C169        C170   1.403       .  A
C169        H173   1.084       .  S
C170        C801   1.487       .  S
C170        C171   1.406       .  A
C171        H174   1.083       .  S
O175        C190   1.263       .  A
O175       Al183   1.899       .  S
C176        O186   1.261       .  A
C176        O177   1.263       .  A
C176        C795   1.475       .  S
O177      Al2003   1.925   1_455  S
O178        C180   1.258       .  A
O178      Al1091   1.888       .  S
Al179       O187   1.874       .  S
Al179      O2001   1.931       .  S
Al179      O1090   1.886       .  S
Al179      O1101   1.920   1_545  S
Al179      O1100   1.773   1_545  S
C180        O193   1.265       .  A
C180        C830   1.476       .  S
O181        C191   1.261   1_655  A
O181      Al2007   1.883       .  S
O182        C195   1.261       .  A
O182      Al1104   1.903       .  S
Al183       O193   1.939       .  S
Al183      O2005   1.886       .  S
Al183      O2020   1.929       .  S
Al183       O188   1.777       .  S
O184        C191   1.269       .  A
O184      Al1104   1.944       .  S
O185        C194   1.264       .  A
O185       Al192   1.926       .  S
O186       Al192   1.898       .  S
O187       C2018   1.254       .  A
O188      Al1091   1.773       .  S
O188      Al2928   1.780       .  S
O189        C190   1.266       .  A
O189      Al1091   1.928       .  S
C190        C880   1.473       .  S
C191        C786   1.477       .  S
Al192      O1094   1.894   1_545  S
Al192      O1096   1.924   1_545  S
Al192      O2924   1.778   1_445  S
C194       O2011   1.261   1_455  A
C194        C865   1.471       .  S
C195        O196   1.265       .  A
C195        C848   1.481       .  S
O196      Al2007   1.931   1_455  S
O197        C212   1.264       .  A
O197       Al205   1.923       .  S
C198        O208   1.264       .  A
C198        O199   1.261       .  A
C198        C757   1.475       .  S
O199       Al201   1.892   1_554  S
O200        C202   1.263       .  A
O200       Al201   1.926   1_554  S
Al201       O209   1.922       .  S
Al201       O211   1.892       .  S
Al201       O210   1.778       .  S
C202        O215   1.261       .  A
C202        C766   1.474       .  S
O203        C213   1.264       .  A
O203       Al205   1.925   1_554  S
O204        C217   1.264       .  A
O204       Al214   1.926       .  S
Al205       O218   1.895       .  S
Al205       O215   1.893   1_556  S
Al205       O210   1.778       .  S
O206        C213   1.261       .  A
O206       Al214   1.891   1_554  S
O207        C216   1.262       .  A
O207       Al214   1.895       .  S
O208       Al214   1.929   1_554  S
O209        C216   1.263       .  A
O210       Al214   1.778       .  S
O211        C212   1.261       .  A
C212        C769   1.471       .  S
C213        C761   1.473       .  S
C216        C777   1.471       .  S
C217        O218   1.261       .  A
C217        C773   1.474       .  S
C219        C751   1.482       .  S
C219        C220   1.408       .  A
C219        C224   1.404       .  A
C220        C221   1.406       .  A
C220        H225   1.083       .  S
C221        C758   1.482       .  S
C221        C222   1.401       .  A
C222        C223   1.400       .  A
C222        H226   1.084       .  S
C223        C224   1.402       .  A
C223        C755   1.441       .  S
C224        H227   1.084       .  S
C228        C809   1.483       .  S
C228        C229   1.404       .  A
C228        C233   1.407       .  A
C229        C230   1.403       .  A
C229        H234   1.084       .  S
C230        C231   1.401       .  A
C230        C756   1.441       .  S
C231        C232   1.401       .  A
C231        H235   1.084       .  S
C232        C747   1.482       .  S
C232        C233   1.405       .  A
C233        H236   1.083       .  S
C237        C238   1.399       .  A
C237       C1154   1.400   1_545  A
C237        C745   1.436       .  S
C238        C239   1.399       .  A
C238        H243   1.084       .  S
C239        C762   1.480       .  S
C239       C1152   1.405       .  A
C240        C241   1.407       .  A
C240       C1151   1.405       .  A
C240        H244   1.083       .  S
C241        C742   1.480       .  S
C241        C242   1.403       .  A
C242       C1149   1.401       .  A
C242        H245   1.084       .  S
C246        C247   1.398       .  A
C246        C251   1.400       .  A
C246        C746   1.437       .  S
C247        C248   1.400       .  A
C247        H252   1.084       .  S
C248        C814   1.479       .  S
C248        C249   1.410       .  A
C249        C250   1.408       .  A
C249        H253   1.083       .  S
C250        C738   1.485       .  S
C250        C251   1.402       .  A
C251        H254   1.084       .  S
C255        C731   1.482       .  S
C255        C260   1.403       .  A
C255       C2080   1.408   1_455  A
C256        C257   1.406       .  A
C256       C2079   1.408       .  A
C256        H261   1.083       .  S
C257        C765   1.481       .  S
C257        C258   1.400       .  A
C258        C259   1.399       .  A
C258        H262   1.085       .  S
C259       C2084   1.402       .  A
C259        C736   1.439       .  S
C260       C2083   1.401   1_455  A
C260        H263   1.084       .  S
C264        C818   1.481       .  S
C264        C265   1.403       .  A
C264        C269   1.409       .  A
C265        C266   1.401       .  A
C265        H270   1.084       .  S
C266        C267   1.400       .  A
C266        C735   1.439       .  S
C267        C268   1.401       .  A
C267        H271   1.084       .  S
C268        C728   1.483       .  S
C268        C269   1.407       .  A
C269        H272   1.083       .  S
O273        C288   1.268       .  A
O273       Al281   1.940       .  S
C274        O284   1.263       .  A
C274        O275   1.261       .  A
C274        C727   1.476       .  S
O275       Al277   1.897       .  S
O276        C278   1.263       .  A
O276       Al277   1.925       .  S
Al277       O285   1.921       .  S
Al277       O287   1.902       .  S
Al277       O286   1.782       .  S
C278        O291   1.260       .  A
C278        C748   1.473       .  S
O279        C289   1.266       .  A
O279       Al281   1.938       .  S
O280        C293   1.263       .  A
O280       Al290   1.923       .  S
Al281       O294   1.901       .  S
Al281       O291   1.890       .  S
Al281       O286   1.777       .  S
O282        C289   1.262       .  A
O282       Al290   1.893       .  S
O283        C292   1.262       .  A
O283       Al290   1.892       .  S
O284       Al290   1.927       .  S
O285        C292   1.264       .  A
O286       Al290   1.779       .  S
O287        C288   1.261       .  A
C288        C782   1.484       .  S
C289        C737   1.479       .  S
C292        C822   1.469       .  S
C293        O294   1.262       .  A
C293        C792   1.475       .  S
O295        C310   1.262       .  A
O295       Al303   1.896   1_554  S
C296        O306   1.261       .  A
C296        O297   1.265       .  A
C296        C715   1.477       .  S
O297       Al299   1.931   1_556  S
O298        C300   1.260       .  A
O298       Al299   1.890   1_556  S
Al299       O307   1.893       .  S
Al299       O309   1.926       .  S
Al299       O308   1.777       .  S
C300        O313   1.263       .  A
C300        C723   1.474       .  S
O301        C311   1.261       .  A
O301       Al303   1.890       .  S
O302        C315   1.262       .  A
O302       Al312   1.897       .  S
Al303       O316   1.924   1_556  S
Al303       O313   1.928       .  S
Al303       O308   1.779   1_556  S
O304        C311   1.263       .  A
O304       Al312   1.925   1_556  S
O305        C314   1.264       .  A
O305       Al312   1.925       .  S
O306       Al312   1.895   1_556  S
O307        C314   1.261       .  A
O308       Al312   1.780       .  S
O309        C310   1.264       .  A
C310        C732   1.474       .  S
C311        C719   1.472       .  S
C314        C741   1.472       .  S
C315        O316   1.264       .  A
C315        C752   1.474       .  S
C317        C705   1.478       .  S
C317        C318   1.401       .  A
C317        C322   1.408       .  A
C318        C319   1.399       .  A
C318        H323   1.084       .  S
C319        C320   1.399       .  A
C319        C713   1.435       .  S
C320        C321   1.400       .  A
C320        H324   1.085       .  S
C321        C709   1.480       .  S
C321        C322   1.406       .  A
C322        H325   1.083       .  S
C326        C778   1.478       .  S
C326        C327   1.401       .  A
C326        C331   1.408       .  A
C327        C328   1.400       .  A
C327        H332   1.084       .  S
C328        C329   1.398       .  A
C328        C714   1.435       .  S
C329        C330   1.399       .  A
C329        H333   1.085       .  S
C330        C720   1.479       .  S
C330        C331   1.405       .  A
C331        H334   1.083       .  S
C335        C336   1.399       .  A
C335        C340   1.402       .  A
C335        C703   1.440       .  S
C336        C337   1.399       .  A
C336        H341   1.085       .  S
C337        C700   1.480       .  S
C337        C338   1.406       .  A
C338        C339   1.407       .  A
C338        H342   1.083       .  S
C339        C695   1.482       .  S
C339        C340   1.405       .  A
C340        H343   1.084       .  S
C344        C349   1.402       .  A
C344       C1257   1.400       .  A
C344        C704   1.440       .  S
C345        C346   1.403       .  A
C345       C1256   1.401   1_545  A
C345        H350   1.084       .  S
C346        C774   1.481       .  S
C346        C347   1.408   1_545  A
C347       C1260   1.407       .  A
C347        H351   1.083       .  S
C348        C716   1.485       .  S
C348        C349   1.403       .  A
C348       C1259   1.406       .  A
C349        H352   1.084       .  S
C353        C685   1.477       .  S
C353        C354   1.401       .  A
C353        C358   1.408       .  A
C354        C355   1.399       .  A
C354        H359   1.084       .  S
C355        C356   1.399       .  A
C355        C694   1.434       .  S
C356        C357   1.399       .  A
C356        H360   1.084       .  S
C357        C690   1.480       .  S
C357        C358   1.406       .  A
C358        H361   1.083       .  S
C362        C770   1.478       .  S
C362        C367   1.401       .  A
C362       C2187   1.408       .  A
C363        C364   1.407       .  A
C363       C2186   1.409   1_455  A
C363       H2192   1.083       .  S
C364        C724   1.480       .  S
C364        C365   1.399       .  A
C365        C366   1.398       .  A
C365        H369   1.085       .  S
C366       C2191   1.399   1_455  A
C366        C693   1.435       .  S
C367       C2190   1.399       .  A
C367        H370   1.084       .  S
H368       C2187   1.083       .  S
O371        C386   1.260       .  A
O371       Al379   1.890       .  S
C372        O382   1.262       .  A
C372        O373   1.262       .  A
C372        C699   1.472       .  S
O373       Al375   1.921       .  S
O374        C376   1.262       .  A
O374       Al375   1.892       .  S
Al375       O383   1.897       .  S
Al375       O385   1.915       .  S
Al375       O384   1.779       .  S
C376        O389   1.264       .  A
C376        C710   1.473       .  S
O377        C387   1.260       .  A
O377       Al379   1.890       .  S
O378        C391   1.258       .  A
O378       Al388   1.885       .  S
Al379       O392   1.925       .  S
Al379       O389   1.926       .  S
Al379       O384   1.777       .  S
O380        C387   1.262       .  A
O380       Al388   1.922       .  S
O381        C390   1.262       .  A
O381       Al388   1.907       .  S
O382       Al388   1.895       .  S
O383        C390   1.261       .  A
O384       Al388   1.776       .  S
O385        C386   1.261       .  A
C386        C682   1.467       .  S
C387        C689   1.473       .  S
C390        C674   1.465       .  S
C391        O392   1.264       .  A
C391        C677   1.469       .  S
C393        C664   1.477       .  S
C393        C394   1.400       .  A
C393        C398   1.408       .  A
C394        C395   1.398       .  A
C394        H399   1.084       .  S
C395        C396   1.397       .  A
C395        C671   1.432       .  S
C396        C397   1.397       .  A
C396        H400   1.085       .  S
C397        C667   1.478       .  S
C397        C398   1.406       .  A
C398        H401   1.083       .  S
C402        C681   1.475       .  S
C402        C403   1.399       .  A
C402        C407   1.407       .  A
C403        C404   1.397       .  A
C403        H408   1.084       .  S
C404        C405   1.398       .  A
C404       C2496   1.430   1_455  S
C405        C406   1.398       .  A
C405        H409   1.085   1_455  S
C406        C659   1.477       .  S
C406        C407   1.405       .  A
C407        H410   1.083       .  S
O411        C426   1.266       .  A
O411      Al1331   1.933   1_545  S
C412        O422   1.262       .  A
C412        O413   1.261       .  A
C412        C668   1.471       .  S
O413      Al2239   1.890       .  S
O414        C416   1.264       .  A
O414       Al415   1.929       .  S
Al415       O425   1.903       .  S
Al415      O2237   1.893       .  S
Al415      O2247   1.923   1_455  S
Al415      O2248   1.780   1_455  S
C416        O429   1.260       .  A
C416        C640   1.474       .  S
O417        C427   1.264       .  A
O417      Al2243   1.931       .  S
O418        C431   1.263       .  A
O418       Al428   1.920       .  S
Al419      O1323   1.926       .  S
Al419      O2241   1.929   1_455  S
Al419      O2256   1.890   1_455  S
Al419      O1341   1.889       .  S
Al419      O3160   1.776   1_455  S
O420        C427   1.261       .  A
O420       Al428   1.897       .  S
O421        C430   1.262       .  A
O421      Al1340   1.899   1_545  S
O422      Al1340   1.922   1_545  S
O423        C430   1.265       .  A
O423      Al2239   1.925       .  S
O424      Al2239   1.778       .  S
O424      Al3155   1.777   1_545  S
O424      Al1340   1.781   1_545  S
O425        C426   1.262       .  A
C426        C651   1.480       .  S
C427        C644   1.477       .  S
Al428      O1333   1.897       .  S
Al428      O1334   1.921       .  S
Al428      O1336   1.780       .  S
O429      Al1331   1.889   1_545  S
C430        C648   1.475       .  S
C431        O432   1.261       .  A
C431        C656   1.469       .  S
O432      Al2243   1.891       .  S
C433        C434   1.402       .  A
C433        C438   1.407       .  A
C433        C637   1.444       .  S
C434        C435   1.401       .  A
C434        H439   1.084       .  S
C435        C673   1.477       .  S
C435        C436   1.405       .  A
C436        C437   1.394       .  A
C436        H440   1.084       .  S
C437        C633   1.485       .  S
C437        C438   1.410       .  A
C438        H441   1.083       .  S
C442        C629   1.485       .  S
C442        C443   1.406       .  A
C442        C447   1.409       .  A
C443        C444   1.404       .  A
C443        H448   1.084       .  S
C444        C445   1.401       .  A
C444        C638   1.444       .  S
C445        C446   1.401       .  A
C445        H449   1.084       .  S
C446        C643   1.485       .  S
C446        C447   1.406       .  A
C447        H450   1.083       .  S
C451        C678   1.478       .  S
C451        C452   1.403       .  A
C451        C456   1.403       .  A
C452        C453   1.402       .  A
C452        H457   1.082       .  S
C453        C623   1.480       .  S
C453        C454   1.400       .  A
C454        C455   1.401       .  A
C454        H458   1.084       .  S
C455        C456   1.403       .  A
C455        C627   1.438       .  S
C456        H459   1.084       .  S
C460        C619   1.480       .  S
C460        C461   1.407       .  A
C460        C465   1.402       .  A
C461        C462   1.405       .  A
C461        H466   1.083       .  S
C462        C639   1.482       .  S
C462        C463   1.401       .  A
C463        C464   1.400       .  A
C463        H467   1.085   1_545  S
C464        C465   1.401       .  A
C464        C628   1.438       .  S
C465        H468   1.084       .  S
O469        C484   1.263       .  A
O469      Al2301   1.923   1_455  S
C470        O471   1.261       .  A
C470       O2304   1.266       .  A
C470        C624   1.468       .  S
O471      Al1385   1.886       .  S
O472        C474   1.263       .  A
O472       Al473   1.925       .  S
Al473       O481   1.922   1_545  S
Al473       O483   1.892       .  S
Al473      O1383   1.889       .  S
Al473      O3218   1.777   1_445  S
C474        O487   1.260   1_455  A
C474        C660   1.470       .  S
O475        C485   1.272       .  A
O475      Al1389   1.957       .  S
O476        C489   1.264       .  A
O476       Al486   1.931       .  S
Al477      O2293   1.946       .  S
Al477      O1387   1.952   1_545  S
Al477      O1402   1.890   1_545  S
Al477      O2311   1.883       .  S
Al477      O1394   1.772   1_545  S
O478        C485   1.254       .  A
O478       Al486   1.866       .  S
O479        C488   1.261       .  A
O479      Al2310   1.891   1_455  S
O480       C2294   1.265       .  A
O480       Al486   1.928       .  S
O481       C1400   1.264       .  A
O482       Al486   1.774       .  S
O482      Al3209   1.775       .  S
O482      Al1389   1.772       .  S
O483        C484   1.261       .  A
C484        C706   1.471       .  S
C485        C634   1.474       .  S
Al486      O2303   1.890       .  S
O487      Al2301   1.887       .  S
C488       O1393   1.265       .  A
C488        C686   1.471       .  S
C489        O490   1.258       .  A
C489        C696   1.475       .  S
O490      Al1389   1.890       .  S
O491        C506   1.260       .  A
O491       Al499   1.895       .  S
C492        O502   1.260       .  A
C492        O493   1.265       .  A
C492        C615   1.475       .  S
O493       Al495   1.935       .  S
O494        C496   1.262       .  A
O494       Al495   1.884       .  S
Al495       O503   1.893       .  S
Al495       O505   1.922       .  S
Al495       O504   1.775       .  S
C496        O509   1.270       .  A
C496        C612   1.479       .  S
O497        C507   1.258       .  A
O497       Al499   1.889       .  S
O498        C511   1.254       .  A
O498       Al508   1.874       .  S
Al499       O512   1.951       .  S
Al499       O509   1.948       .  S
Al499       O504   1.776       .  S
O500        C507   1.266       .  A
O500       Al508   1.941       .  S
O501        C510   1.267       .  A
O501       Al508   1.930       .  S
O502       Al508   1.891       .  S
O503        C510   1.261       .  A
O504       Al508   1.774       .  S
O505        C506   1.263       .  A
C506        C856   1.473       .  S
C507        C607   1.481       .  S
C510        C862   1.470       .  S
C511        O512   1.271       .  A
C511        C875   1.475       .  S
C513        C909   1.486       .  S
C513        C514   1.409       .  A
C513        C518   1.407       .  A
C514        C515   1.407       .  A
C514        H519   1.082       .  S
C515        C608   1.489       .  S
C515        C516   1.406       .  A
C516        C517   1.403       .  A
C516        H520   1.084       .  S
C517        C518   1.403       .  A
C517        C605   1.450       .  S
C518        H521   1.084       .  S
C522        C652   1.490       .  S
C522        C523   1.409       .  A
C522        C527   1.407       .  A
C523        C524   1.408       .  A
C523        H528   1.084       .  S
C524        C525   1.402       .  A
C524        C606   1.450       .  S
C525        C526   1.402       .  A
C525        H529   1.084       .  S
C526        C601   1.484       .  S
C526        C527   1.405       .  A
C527        H530   1.083       .  S
C531        C532   1.399       .  A
C531       C2360   1.399       .  A
C531        C599   1.435       .  S
C532        C533   1.400       .  A
C532        H537   1.084       .  S
C533        C616   1.482       .  S
C533       C2358   1.406       .  A
C534        C535   1.409   1_655  A
C534       C2357   1.407       .  A
C534        H538   1.083       .  S
C535        C905   1.472       .  S
C535        C536   1.396       .  A
C536       C2355   1.395   1_455  A
C536        H539   1.085       .  S
C540        C541   1.399       .  A
C540        C545   1.399       .  A
C540        C600   1.434       .  S
C541        C542   1.400       .  A
C541        H546   1.084       .  S
C542        C655   1.476       .  S
C542        C543   1.407       .  A
C543        C544   1.405       .  A
C543        H547   1.083       .  S
C544        C595   1.481       .  S
C544        C545   1.400       .  A
C545        H548   1.084       .  S
C549        C902   1.485       .  S
C549        C554   1.406       .  A
C549       C1462   1.407       .  A
C550        C551   1.407       .  A
C550       C1461   1.410   1_545  A
C550        H555   1.083       .  S
C551        C611   1.485       .  S
C551        C552   1.403       .  A
C552        C553   1.400       .  A
C552        H556   1.084       .  S
C553       C1466   1.400   1_545  A
C553        C593   1.441       .  S
C554       C1465   1.404       .  A
C554        H557   1.084       .  S
C558        C647   1.483       .  S
C558        C559   1.404       .  A
C558        C563   1.409       .  A
C559        C560   1.402       .  A
C559        H564   1.084       .  S
C560        C561   1.399       .  A
C560        C594   1.440       .  S
C561        C562   1.400       .  A
C561        H565   1.084       .  S
C562        C589   1.482       .  S
C562        C563   1.406       .  A
C563        H566   1.083       .  S
O567        C582   1.261       .  A
O567       Al575   1.891       .  S
C568        O578   1.261       .  A
C568        O569   1.264       .  A
C568        C596   1.473       .  S
O569       Al571   1.927       .  S
O570        C572   1.261       .  A
O570       Al571   1.897       .  S
Al571       O579   1.903       .  S
Al571       O581   1.926       .  S
Al571       O580   1.779       .  S
C572        O585   1.263       .  A
C572        C602   1.475       .  S
O573        C583   1.261       .  A
O573       Al575   1.893       .  S
O574        C587   1.262       .  A
O574       Al584   1.893       .  S
Al575       O588   1.921       .  S
Al575       O585   1.926       .  S
Al575       O580   1.779       .  S
O576        C583   1.264       .  A
O576       Al584   1.929       .  S
O577        C586   1.264       .  A
O577       Al584   1.924       .  S
O578       Al584   1.889       .  S
O579        C586   1.262       .  A
O580       Al584   1.778       .  S
O581        C582   1.265       .  A
C582        C620   1.472       .  S
C583        C590   1.475       .  S
C586        C630   1.476       .  S
C587        O588   1.263       .  A
C587        C663   1.470       .  S
C589        C590   1.344       .  D
C589        H591   1.087       .  S
C590        H592   1.086       .  S
C593        C594   1.206       .  T
C595        C596   1.344       .  D
C595        H597   1.087       .  S
C596        H598   1.086       .  S
C599        C600   1.203       .  T
C601        C602   1.345       .  D
C601        H603   1.087       .  S
C602        H604   1.086       .  S
C605        C606   1.212       .  T
C607        C608   1.349       .  D
C607        H609   1.085       .  S
C608        H610   1.087       .  S
C611        C612   1.347       .  D
C611        H613   1.087       .  S
C612        H614   1.086       .  S
C615        C616   1.344       .  D
C615        H617   1.086       .  S
C616        H618   1.087       .  S
C619        C620   1.344       .  D
C619        H621   1.087       .  S
C620        H622   1.086       .  S
C623        C624   1.345       .  D
C623        H625   1.087       .  S
C624        H626   1.085       .  S
C627       C1540   1.205       .  T
C628       C1539   1.205   1_545  T
C629        C630   1.345       .  D
C629        H631   1.086       .  S
C630        H632   1.087       .  S
C633        C634   1.337       .  D
C633        H635   1.087       .  S
C634        H636   1.087       .  S
C637        C638   1.208       .  T
C639        C640   1.345       .  D
C639        H641   1.087   1_545  S
C640        H642   1.086       .  S
C643        C644   1.345       .  D
C643        H645   1.087       .  S
C644        H646   1.086       .  S
C647        C648   1.344       .  D
C647        H649   1.086       .  S
C648        H650   1.087       .  S
C651        C652   1.349       .  D
C651        H653   1.086       .  S
C652        H654   1.086       .  S
C655        C656   1.341       .  D
C655        H657   1.087       .  S
C656        H658   1.087       .  S
C659        C660   1.342       .  D
C659        H661   1.087   1_455  S
C660        H662   1.086       .  S
C663        C664   1.341       .  D
C663        H665   1.087       .  S
C664        H666   1.087       .  S
C667        C668   1.341       .  D
C667        H669   1.087       .  S
C668        H670   1.086       .  S
C671        C672   1.201       .  T
C672       C2228   1.432       .  S
C673        C674   1.341       .  D
C673        H675   1.086       .  S
C674        H676   1.087       .  S
C677        C678   1.345       .  D
C677        H679   1.087       .  S
C678        H680   1.087       .  S
C681        C682   1.340       .  D
C681        H683   1.087       .  S
C682        H684   1.087       .  S
C685        C686   1.342       .  D
C685        H687   1.087   1_455  S
C686        H688   1.087       .  S
C689        C690   1.343       .  D
C689        H691   1.086       .  S
C690        H692   1.087       .  S
C693        C694   1.203       .  T
C695        C696   1.346       .  D
C695        H697   1.087       .  S
C696        H698   1.086       .  S
C699        C700   1.342       .  D
C699        H701   1.086       .  S
C700        H702   1.087       .  S
C703        C704   1.206       .  T
C705        C706   1.342       .  D
C705        H707   1.087       .  S
C706        H708   1.086       .  S
C709        C710   1.343       .  D
C709        H711   1.087       .  S
C710        H712   1.086       .  S
C713        C714   1.203       .  T
C715        C716   1.346       .  D
C715        H717   1.086       .  S
C716        H718   1.087       .  S
C719        C720   1.343       .  D
C719        H721   1.086       .  S
C720        H722   1.087       .  S
C723        C724   1.343       .  D
C723        H725   1.086       .  S
C724        H726   1.087       .  S
C727        C728   1.344       .  D
C727        H729   1.086       .  S
C728        H730   1.087       .  S
C731        C732   1.344       .  D
C731        H733   1.086       .  S
C732        H734   1.086       .  S
C735        C736   1.206       .  T
C737        C738   1.346       .  D
C737        H739   1.086       .  S
C738        H740   1.087       .  S
C741        C742   1.344       .  D
C741        H743   1.087       .  S
C742        H744   1.087       .  S
C745        C746   1.204       .  T
C747        C748   1.345       .  D
C747        H749   1.087       .  S
C748        H750   1.086       .  S
C751        C752   1.344       .  D
C751        H753   1.086       .  S
C752        H754   1.087       .  S
C755        C756   1.206       .  T
C757        C758   1.344       .  D
C757        H759   1.086       .  S
C758        H760   1.087       .  S
C761        C762   1.343       .  D
C761        H763   1.086       .  S
C762        H764   1.087       .  S
C765        C766   1.343       .  D
C765        H767   1.087       .  S
C766        H768   1.086       .  S
C769        C770   1.342       .  D
C769        H771   1.086       .  S
C770        H772   1.087       .  S
C773        C774   1.344       .  D
C773        H775   1.087       .  S
C774        H776   1.087       .  S
C777        C778   1.342       .  D
C777        H779   1.087       .  S
C778        H780   1.087       .  S
C781        C782   1.352       .  D
C781        H783   1.086       .  S
C782        H784   1.086       .  S
C785        C786   1.348       .  D
C785        H787   1.087   1_455  S
C786        H788   1.085       .  S
C789       C2614   1.216       .  T
C790       C2613   1.208   1_455  T
C791        C792   1.343       .  D
C791        H793   1.087       .  S
C792        H794   1.087       .  S
C795        C796   1.344       .  D
C795        H797   1.086       .  S
C796        H798   1.087       .  S
C799        C800   1.206       .  T
C801        C802   1.348       .  D
C801        H803   1.087       .  S
C802        H804   1.086       .  S
C805        C806   1.345       .  D
C805        H807   1.086       .  S
C806        H808   1.087       .  S
C809        C810   1.345       .  D
C809        H811   1.086       .  S
C810        H812   1.086       .  S
C813        C814   1.341       .  D
C813        H815   1.087       .  S
C814        H816   1.087   1_545  S
C817        C818   1.343       .  D
C817        H819   1.087       .  S
C818        H820   1.087       .  S
C821        C822   1.341       .  D
C821        H823   1.087       .  S
C822        H824   1.087       .  S
C825        C826   1.341       .  D
C825        H827   1.087   1_545  S
C826        H828   1.086       .  S
C829        C830   1.347       .  D
C829        H831   1.087       .  S
C830        H832   1.086       .  S
C833       C1746   1.209       .  T
C834       C1745   1.201   1_545  T
C835        C836   1.346       .  D
C835        H837   1.086       .  S
C836        H838   1.086       .  S
C839        C840   1.344       .  D
C839        H841   1.086       .  S
C840        H842   1.087       .  S
C843        C844   1.344       .  D
C843        H845   1.087       .  S
C844        H846   1.087       .  S
C847        C848   1.349       .  D
C847        H849   1.086       .  S
C848        H850   1.086       .  S
C851        C852   1.344       .  D
C851        H853   1.087       .  S
C852        H854   1.086       .  S
C855        C856   1.344       .  D
C855        H857   1.087       .  S
C856        H858   1.086       .  S
C859        C860   1.210       .  T
C861        C862   1.347       .  D
C861        H863   1.086       .  S
C862        H864   1.087       .  S
C865        C866   1.343       .  D
C865        H867   1.087       .  S
C866        H868   1.087   1_455  S
C869        C870   1.344       .  D
C869        H871   1.086       .  S
C870        H872   1.087       .  S
C873        C874   1.204       .  T
C875        C876   1.336       .  D
C875        H877   1.087       .  S
C876        H878   1.088       .  S
C879        C880   1.346       .  D
C879        H881   1.086       .  S
C880        H882   1.086       .  S
C883        C884   1.347       .  D
C883        H885   1.087       .  S
C884        H886   1.086       .  S
C887        C888   1.209       .  T
C889        C890   1.346       .  D
C889        H891   1.085       .  S
C890        H892   1.087       .  S
C893        C894   1.337       .  D
C893        H895   1.087       .  S
C894        H896   1.087       .  S
C897        C898   1.343       .  D
C897        H899   1.087       .  S
C898        H900   1.085       .  S
C901        C902   1.348       .  D
C901        H903   1.086       .  S
C902        H904   1.086       .  S
C905        C906   1.339       .  D
C905        H907   1.087       .  S
C906        H908   1.087       .  S
C909        C910   1.348       .  D
C909        H911   1.087       .  S
C910        H912   1.086       .  S
O913        C928   1.264       .  A
O913       Al921   1.925       .  S
C914        O924   1.263       .  A
C914        O915   1.261       .  A
C914       C1810   1.469       .  S
O915       Al917   1.888       .  S
O916        C918   1.263       .  A
O916       Al917   1.927       .  S
Al917       O925   1.923       .  S
Al917       O927   1.897       .  S
Al917       O926   1.778       .  S
C918        O931   1.261       .  A
C918       C1805   1.473       .  S
O919        C929   1.264       .  A
O919       Al921   1.930       .  S
O920        C933   1.264       .  A
O920       Al930   1.923       .  S
Al921       O934   1.890       .  S
Al921       O931   1.890       .  S
Al921       O926   1.776       .  S
O922        C929   1.260       .  A
O922       Al930   1.897       .  S
O923        C932   1.262       .  A
O923       Al930   1.896       .  S
O924       Al930   1.921       .  S
O925        C932   1.263       .  A
O926       Al930   1.780       .  S
O927        C928   1.262       .  A
C928       C1813   1.474       .  S
C929       C1801   1.477       .  S
C932       C1822   1.474       .  S
C933        O934   1.260       .  A
C933       C1818   1.470       .  S
C935       C1791   1.477       .  S
C935        C936   1.400       .  A
C935        C940   1.405       .  A
C936        C937   1.399       .  A
C936        H941   1.084       .  S
C937        C938   1.400       .  A
C937       C1800   1.432       .  S
C938        C939   1.399       .  A
C938        H942   1.084       .  S
C939       C1795   1.477       .  S
C939        C940   1.402       .  A
C940        H943   1.083       .  S
C944       C1788   1.476       .  S
C944        C945   1.407       .  A
C944        C949   1.400       .  A
C945        C946   1.404       .  A
C945        H950   1.083       .  S
C946       C1809   1.477       .  S
C946        C947   1.398       .  A
C947        C948   1.398       .  A
C947        H951   1.085       .  S
C948        C949   1.399       .  A
C948       C1799   1.432       .  S
C949        H952   1.084       .  S
C953        C954   1.408       .  A
C953        C958   1.411       .  A
C953       C1786   1.456       .  S
C954        C955   1.406       .  A
C954        H959   1.084       .  S
C955       C1782   1.488       .  S
C955        C956   1.402       .  A
C956        C957   1.396       .  A
C956        H960   1.083       .  S
C957       C1778   1.484       .  S
C957        C958   1.412       .  A
C958        H961   1.083       .  S
C962       C2787   1.410   1_455  A
C962        C967   1.404       .  A
C962       C1785   1.456       .  S
C963       C2786   1.410       .  A
C963        C964   1.411       .  A
C963        H968   1.084       .  S
C964       C1773   1.491       .  S
C964        C965   1.407       .  A
C965       C2790   1.404       .  A
C965        H969   1.082       .  S
C966       C1802   1.488       .  S
C966       C2789   1.405       .  A
C966        C967   1.404       .  A
C967        H970   1.084       .  S
C971       C1767   1.479       .  S
C971        C976   1.403       .  A
C972        C973   1.405       .  A
C972        H977   1.083       .  S
C973       C1806   1.480       .  S
C973        C974   1.399       .  A
C974        C975   1.399       .  A
C974        H978   1.085       .  S
C975       C1772   1.438       .  S
C976        H979   1.084       .  S
C980        C981   1.400       .  A
C980        C985   1.399       .  A
C980       C1771   1.438       .  S
C981        C982   1.403       .  A
C981        H986   1.084       .  S
C982       C1763   1.483       .  S
C982        C983   1.405       .  A
C983        C984   1.408       .  A
C983        H987   1.083       .  S
C984       C1759   1.478       .  S
C984        C985   1.401       .  A
C985        H988   1.084       .  S
O989       C1004   1.262       .  A
O989       Al997   1.915       .  S
C990       O1000   1.269       .  A
C990        O991   1.260       .  A
C990       C1764   1.477       .  S
O991       Al993   1.879       .  S
O992        C994   1.265       .  A
O992       Al993   1.933       .  S
Al993      O1001   1.922       .  S
Al993      O1003   1.895       .  S
Al993      O1002   1.774       .  S
C994       O1007   1.259       .  A
C994       C1796   1.469       .  S
O995       C1005   1.262       .  A
O995       Al997   1.919       .  S
O996       C1009   1.273       .  A
O996      Al1006   1.959       .  S
Al997      O1010   1.877       .  S
Al997      O1007   1.884       .  S
Al997      O1002   1.771       .  S
O998       C1005   1.258       .  A
O998      Al1006   1.895       .  S
O999       C1008   1.261       .  A
O999      Al1006   1.894       .  S
O1000     Al1006   1.946       .  S
O1001      C1008   1.263       .  A
O1002     Al1006   1.777       .  S
O1003      C1004   1.262       .  A
C1004      C1747   1.465       .  S
C1005      C1781   1.472       .  S
C1008      C1751   1.473       .  S
C1009      O1010   1.255       .  A
C1009      C1755   1.479       .  S
C1011      C1012   1.400       .  A
C1011      C1016   1.398       .  A
C1011      C1745   1.431       .  S
C1012      C1013   1.398       .  A
C1012      H1017   1.084   1_565  S
C1013      C1741   1.477       .  S
C1013      C1014   1.403       .  A
C1014      C1015   1.406       .  A
C1014      H1018   1.083       .  S
C1015      C1748   1.476       .  S
C1015      C1016   1.399       .  A
C1016      H1019   1.084       .  S
C1020      C1021   1.400       .  A
C1020      C1025   1.404       .  A
C1020      C1746   1.444       .  S
C1021      C1022   1.401       .  A
C1021      H1026   1.084       .  S
C1022      C1737   1.483       .  S
C1022      C1023   1.406       .  A
C1023      C1024   1.408       .  A
C1023      H1027   1.083       .  S
C1024      C1733   1.485       .  S
C1024      C1025   1.406       .  A
C1025      H1028   1.084       .  S
O1029      C1044   1.261       .  A
O1029     Al1037   1.896       .  S
C1030      O1040   1.261       .  A
C1030      O1031   1.265       .  A
C1030      C1717   1.478       .  S
O1032      C1034   1.261       .  A
O1032     Al2857   1.892       .  S
Al1033     O2856   1.890       .  S
Al1033     O1041   1.897       .  S
Al1033     O2867   1.932   1_455  S
Al1033     O2866   1.777   1_455  S
C1034      O1047   1.264       .  A
C1034      C1714   1.475       .  S
O1035      C1045   1.261       .  A
O1036      C1049   1.262       .  A
O1036     Al2870   1.900       .  S
Al1037     O1047   1.929       .  S
Al1037     O1042   1.778   1_565  S
O1038      C1045   1.265       .  A
O1038     Al2870   1.930       .  S
O1039      C1048   1.264       .  A
O1039     Al1046   1.927       .  S
O1040     Al1046   1.897       .  S
O1042     Al2857   1.778   1_545  S
O1042     Al1958   1.780       .  S
O1043      C1044   1.263       .  A
O1043     Al2857   1.924       .  S
C1044      C1722   1.474       .  S
C1045      C1738   1.475       .  S
Al1046     O2860   1.899   1_455  S
Al1046     O2862   1.926   1_455  S
Al1046     O1954   1.780   1_455  S
C1048      C1725   1.473       .  S
C1049      O1050   1.265       .  A
C1049      C1729   1.477       .  S
C1051      C1052   1.408       .  A
C1051      C1056   1.411       .  A
C1051      C1711   1.455       .  S
C1052      C1053   1.406       .  A
C1052      H1057   1.084       .  S
C1053      C1708   1.489       .  S
C1053      C1054   1.402       .  A
C1054      C1055   1.396       .  A
C1054      H1058   1.083       .  S
C1055      C1756   1.484       .  S
C1055      C1056   1.412       .  A
C1056      H1059   1.083       .  S
C1060      C1061   1.404       .  A
C1060      C1065   1.410       .  A
C1060      C1712   1.455       .  S
C1061      C1062   1.404       .  A
C1061      H1066   1.084       .  S
C1062      C1718   1.488       .  S
C1062      C1063   1.405       .  A
C1063      C1064   1.408       .  A
C1063      H1067   1.083       .  S
C1064      C1703   1.492       .  S
C1064      C1065   1.411       .  A
C1065      H1068   1.084       .  S
C1069      C1070   1.401       .  A
C1069      C1074   1.399       .  A
C1069      C1702   1.437       .  S
C1070      C1071   1.402       .  A
C1070      H1075   1.084       .  S
C1071      C1752   1.480       .  S
C1071      C1072   1.408       .  A
C1072      C1073   1.406       .  A
C1072      H1076   1.083       .  S
C1073      C1697   1.481       .  S
C1073      C1074   1.400       .  A
C1074      H1077   1.084   1_455  S
C1078      C1693   1.482       .  S
C1078      C1079   1.403       .  A
C1078      C1083   1.408       .  A
C1079      C1080   1.401       .  A
C1079      H1084   1.084       .  S
C1080      C1081   1.400       .  A
C1080      C1701   1.439       .  S
C1081      C1082   1.400       .  A
C1081      H1085   1.084       .  S
C1082      C1713   1.482       .  S
C1082      C1083   1.406       .  A
C1083      H1086   1.083       .  S
O1087      C1102   1.262       .  A
O1087     Al1095   1.893       .  S
C1088      O1098   1.258       .  A
C1088      O1089   1.261       .  A
C1088      C1707   1.472       .  S
O1089     Al2915   1.916   1_455  S
O1090      C1092   1.260   1_545  A
Al1091     O2913   1.932       .  S
Al1091     O1099   1.878       .  S
C1092      O1105   1.264       .  A
C1092      C1742   1.469       .  S
O1093      C1103   1.261   1_655  A
O1093     Al2919   1.892       .  S
O1094      C1107   1.262       .  A
Al1095     O2917   1.881       .  S
Al1095     O2932   1.921       .  S
Al1095     O1105   1.931       .  S
Al1095     O1100   1.774       .  S
O1096      C1103   1.263       .  A
O1097      C1106   1.272       .  A
O1097     Al1104   1.957       .  S
O1098     Al1104   1.898       .  S
O1099      C2930   1.255       .  A
O1100     Al2016   1.774   1_565  S
O1101      C1102   1.264       .  A
C1102      C1792   1.465       .  S
C1103      C1698   1.473       .  S
Al1104     O2012   1.781   1_455  S
C1106      O2923   1.255   1_455  A
C1106      C1777   1.479       .  S
C1107      O1108   1.263       .  A
C1107      C1760   1.470       .  S
O1108     Al2919   1.918   1_455  S
O1109      C1124   1.264       .  A
O1109     Al1117   1.926       .  S
C1110      O1120   1.264       .  A
C1110      O1111   1.260       .  A
C1110      C1669   1.472       .  S
O1111     Al1113   1.888   1_554  S
O1112      C1114   1.264       .  A
O1112     Al1113   1.929   1_554  S
Al1113     O1121   1.925       .  S
Al1113     O1123   1.892       .  S
Al1113     O1122   1.777       .  S
C1114      O1127   1.260       .  A
C1114      C1678   1.475       .  S
O1115      C1125   1.264       .  A
O1115     Al1117   1.927   1_554  S
O1116      C1129   1.264       .  A
O1116     Al1126   1.925       .  S
Al1117     O1130   1.893       .  S
Al1117     O1127   1.893   1_556  S
Al1117     O1122   1.777       .  S
O1118      C1125   1.261       .  A
O1118     Al1126   1.893   1_554  S
O1119      C1128   1.262       .  A
O1119     Al1126   1.896       .  S
O1120     Al1126   1.927   1_554  S
O1121      C1128   1.264       .  A
O1122     Al1126   1.779       .  S
O1123      C1124   1.261       .  A
C1124      C1681   1.472       .  S
C1125      C1673   1.474       .  S
C1128      C1689   1.473       .  S
C1129      O1130   1.261       .  A
C1129      C1685   1.472       .  S
C1131      C1663   1.480       .  S
C1131      C1132   1.407       .  A
C1131      C1136   1.403       .  A
C1132      C1133   1.404       .  A
C1132      H1137   1.083       .  S
C1133      C1670   1.480       .  S
C1133      C1134   1.399       .  A
C1134      C1135   1.400       .  A
C1134      H1138   1.084       .  S
C1135      C1136   1.402       .  A
C1135      C1667   1.438       .  S
C1136      H1139   1.084       .  S
C1140      C1721   1.480       .  S
C1140      C1141   1.402       .  A
C1140      C1145   1.409       .  A
C1141      C1142   1.400       .  A
C1141      H1146   1.084       .  S
C1142      C1143   1.400       .  A
C1142      C1668   1.438       .  S
C1143      C1144   1.402       .  A
C1143      H1147   1.084       .  S
C1144      C1659   1.484       .  S
C1144      C1145   1.407       .  A
C1145      H1148   1.083       .  S
C1149      C1150   1.401       .  A
C1149      C1657   1.440       .  S
C1150      C1151   1.401       .  A
C1150      H1155   1.084       .  S
C1151      C1674   1.483       .  S
C1152      C1153   1.407   1_545  A
C1152      H1156   1.083   1_545  S
C1153      C1654   1.479       .  S
C1153      C1154   1.402       .  A
C1154      H1157   1.084       .  S
C1158      C1159   1.402       .  A
C1158      C1163   1.401       .  A
C1158      C1658   1.440       .  S
C1159      C1160   1.403       .  A
C1159      H1164   1.084       .  S
C1160      C1726   1.481       .  S
C1160      C1161   1.407       .  A
C1161      C1162   1.405       .  A
C1161      H1165   1.083       .  S
C1162      C1650   1.483       .  S
C1162      C1163   1.402       .  A
C1163      H1166   1.084       .  S
C1167      C1643   1.485       .  S
C1167      C2992   1.405   1_455  A
C1167      C1172   1.407       .  A
C1168      C2991   1.407       .  A
C1168      C1169   1.405       .  A
C1168      H1173   1.083       .  S
C1169      C1677   1.484       .  S
C1169      C1170   1.402       .  A
C1170      C1171   1.402       .  A
C1170      H1174   1.084       .  S
C1171      C2996   1.405       .  A
C1171      C1648   1.447       .  S
C1172      C2995   1.406   1_455  A
C1172      H1175   1.084       .  S
C1176      C1730   1.486       .  S
C1176      C1177   1.406       .  A
C1176      C1181   1.409       .  A
C1177      C1178   1.404       .  A
C1177      H1182   1.084       .  S
C1178      C1179   1.402       .  A
C1178      C1647   1.447       .  S
C1179      C1180   1.403       .  A
C1179      H1183   1.084       .  S
C1180      C1640   1.487       .  S
C1180      C1181   1.406       .  A
C1181      H1184   1.083       .  S
O1185      C1200   1.264       .  A
O1185     Al1193   1.925       .  S
C1186      O1196   1.266       .  A
C1186      O1187   1.261       .  A
C1186      C1639   1.479       .  S
O1187     Al1189   1.894       .  S
O1188      C1190   1.264       .  A
O1188     Al1189   1.930       .  S
Al1189     O1197   1.928       .  S
Al1189     O1199   1.896       .  S
Al1189     O1198   1.780       .  S
C1190      O1203   1.261       .  A
C1190      C1660   1.476       .  S
O1191      C1201   1.264       .  A
O1191     Al1193   1.928       .  S
O1192      C1205   1.267       .  A
O1192     Al1202   1.939       .  S
Al1193     O1206   1.903       .  S
Al1193     O1203   1.895       .  S
Al1193     O1198   1.780       .  S
O1194      C1201   1.260       .  A
O1194     Al1202   1.893       .  S
O1195      C1204   1.262       .  A
O1195     Al1202   1.900       .  S
O1196     Al1202   1.939       .  S
O1197      C1204   1.265       .  A
O1198     Al1202   1.779       .  S
O1199      C1200   1.262       .  A
C1200      C1694   1.474       .  S
C1201      C1649   1.475       .  S
C1204      C1734   1.477       .  S
C1205      O1206   1.261       .  A
C1205      C1704   1.483       .  S
O1207      C1222   1.261       .  A
O1207     Al1215   1.896   1_554  S
C1208      O1218   1.261       .  A
C1208      O1209   1.266       .  A
C1208      C1627   1.478       .  S
O1209     Al1211   1.935   1_556  S
O1210      C1212   1.260       .  A
O1210     Al1211   1.890   1_556  S
Al1211     O1219   1.892       .  S
Al1211     O1221   1.931       .  S
Al1211     O1220   1.776   1_554  S
C1212      O1225   1.264       .  A
C1212      C1635   1.475       .  S
O1213      C1223   1.261       .  A
O1213     Al1215   1.892       .  S
O1214      C1227   1.262       .  A
O1214     Al1224   1.896   1_554  S
Al1215     O1228   1.921   1_556  S
Al1215     O1225   1.929       .  S
Al1215     O1220   1.779       .  S
O1216      C1223   1.263       .  A
O1216     Al1224   1.925       .  S
O1217      C1226   1.263       .  A
O1217     Al1224   1.922   1_554  S
O1218     Al1224   1.894       .  S
O1219      C1226   1.260       .  A
O1220     Al1224   1.779       .  S
O1221      C1222   1.266       .  A
C1222      C1644   1.476       .  S
C1223      C1631   1.472       .  S
C1226      C1653   1.471       .  S
C1227      O1228   1.264       .  A
C1227      C1664   1.471       .  S
C1229      C1617   1.481       .  S
C1229      C1230   1.403       .  A
C1229      C1234   1.408       .  A
C1230      C1231   1.400       .  A
C1230      H1235   1.084       .  S
C1231      C1232   1.398       .  A
C1231      C1625   1.437       .  S
C1232      C1233   1.399       .  A
C1232      H1236   1.085       .  S
C1233      C1621   1.480       .  S
C1233      C1234   1.407       .  A
C1234      H1237   1.083       .  S
C1238      C1690   1.481       .  S
C1238      C1239   1.403       .  A
C1238      C1243   1.408       .  A
C1239      C1240   1.401       .  A
C1239      H1244   1.084       .  S
C1240      C1241   1.399       .  A
C1240      C1626   1.437       .  S
C1241      C1242   1.399       .  A
C1241      H1245   1.085       .  S
C1242      C1632   1.480       .  S
C1242      C1243   1.405       .  A
C1243      H1246   1.083       .  S
C1247      C1248   1.400       .  A
C1247      C1252   1.403       .  A
C1247      C1615   1.442       .  S
C1248      C1249   1.400       .  A
C1248      H1253   1.085       .  S
C1249      C1612   1.482       .  S
C1249      C1250   1.406       .  A
C1250      C1251   1.407       .  A
C1250      H1254   1.083       .  S
C1251      C1607   1.483       .  S
C1251      C1252   1.406       .  A
C1252      H1255   1.084       .  S
C1256      C1261   1.402       .  A
C1256      C1616   1.442       .  S
C1257      C1258   1.401       .  A
C1257      H1262   1.084       .  S
C1258      C1686   1.479       .  S
C1258      C1259   1.408       .  A
C1259      H1263   1.083       .  S
C1260      C1628   1.486       .  S
C1260      C1261   1.403       .  A
C1261      H1264   1.084       .  S
C1265      C1597   1.478       .  S
C1265      C1266   1.402       .  A
C1265      C1270   1.407       .  A
C1266      C1267   1.400       .  A
C1266      H1271   1.084       .  S
C1267      C1268   1.398       .  A
C1267      C1606   1.435       .  S
C1268      C1269   1.398       .  A
C1268      H1272   1.085       .  S
C1269      C1602   1.478       .  S
C1269      C1270   1.404       .  A
C1270      H1273   1.083       .  S
C1274      C1682   1.479       .  S
C1274      C3099   1.407       .  A
C1274      C1279   1.402       .  A
C1275      C3098   1.409   1_455  A
C1275      C1276   1.407       .  A
C1275      H3104   1.083       .  S
C1276      C1636   1.482       .  S
C1276      C1277   1.401       .  A
C1277      C1278   1.399       .  A
C1277      H1281   1.085       .  S
C1278      C3103   1.398   1_455  A
C1278      C1605   1.435       .  S
C1279      C3102   1.400       .  A
C1279      H1282   1.084       .  S
H1280      C3099   1.083       .  S
O1283      C1298   1.261       .  A
O1283     Al1291   1.893       .  S
C1284      O1294   1.261       .  A
C1284      O1285   1.262       .  A
C1284      C1611   1.473       .  S
O1285     Al1287   1.920       .  S
O1286      C1288   1.262       .  A
O1286     Al1287   1.895       .  S
Al1287     O1295   1.896       .  S
Al1287     O1297   1.913       .  S
Al1287     O1296   1.780       .  S
C1288      O1301   1.263       .  A
C1288      C1622   1.472       .  S
O1289      C1299   1.260       .  A
O1289     Al1291   1.889       .  S
O1290      C1303   1.259       .  A
O1290     Al1300   1.888       .  S
Al1291     O1304   1.924       .  S
Al1291     O1301   1.922       .  S
Al1291     O1296   1.778       .  S
O1292      C1299   1.262       .  A
O1292     Al1300   1.919       .  S
O1293      C1302   1.262       .  A
O1293     Al1300   1.908       .  S
O1294     Al1300   1.896       .  S
O1295      C1302   1.261       .  A
O1296     Al1300   1.778       .  S
O1297      C1298   1.261       .  A
C1298      C1594   1.468       .  S
C1299      C1601   1.470       .  S
C1302      C1586   1.465       .  S
C1303      O1304   1.263       .  A
C1303      C1589   1.471       .  S
C1305      C1576   1.478       .  S
C1305      C1306   1.402       .  A
C1305      C1310   1.408       .  A
C1306      C1307   1.400       .  A
C1306      H1311   1.084       .  S
C1307      C1308   1.398       .  A
C1307      C1583   1.434       .  S
C1308      C1309   1.398       .  A
C1308      H1312   1.085       .  S
C1309      C1579   1.478       .  S
C1309      C1310   1.405       .  A
C1310      H1313   1.083       .  S
C1314      C1593   1.476       .  S
C1314      C1315   1.399       .  A
C1314      C1319   1.408       .  A
C1315      C1316   1.397       .  A
C1315      H1320   1.084       .  S
C1316      C1317   1.399       .  A
C1316      C3408   1.433   1_455  S
C1317      C1318   1.400       .  A
C1317      H1321   1.085   1_455  S
C1318      C1571   1.481       .  S
C1318      C1319   1.406       .  A
C1319      H1322   1.083       .  S
O1323      C1338   1.264       .  A
C1324      O1334   1.262       .  A
C1324      O1325   1.261       .  A
C1324      C1580   1.471       .  S
O1325     Al3151   1.891       .  S
O1326      C1328   1.265       .  A
O1326     Al1327   1.934       .  S
Al1327     O3149   1.889   1_455  S
Al1327     O3159   1.930   1_455  S
Al1327     O1337   1.898       .  S
Al1327     O3160   1.777   1_455  S
C1328      O1341   1.261       .  A
C1328      C1552   1.476       .  S
O1329      C1339   1.264       .  A
O1329     Al3155   1.929       .  S
O1330      C1343   1.263       .  A
O1330     Al1340   1.922       .  S
Al1331     O3153   1.933   1_455  S
Al1331     O3168   1.894       .  S
Al1331     O2248   1.776   1_465  S
O1332      C1339   1.261       .  A
O1332     Al1340   1.897       .  S
O1333      C1342   1.262       .  A
O1335      C1342   1.265       .  A
O1335     Al3151   1.928       .  S
O1336     Al3151   1.778       .  S
O1336     Al2243   1.777       .  S
O1337      C1338   1.261       .  A
C1338      C1563   1.475       .  S
C1339      C1556   1.476       .  S
C1342      C1560   1.476       .  S
C1343      O1344   1.261       .  A
C1343      C1568   1.471       .  S
O1344     Al3155   1.893       .  S
C1345      C1346   1.403       .  A
C1345      C1350   1.406       .  A
C1345      C1549   1.443       .  S
C1346      C1347   1.401       .  A
C1346      H1351   1.084       .  S
C1347      C1585   1.477       .  S
C1347      C1348   1.405       .  A
C1348      C1349   1.394       .  A
C1348      H1352   1.084       .  S
C1349      C1545   1.483       .  S
C1349      C1350   1.409       .  A
C1350      H1353   1.083       .  S
C1354      C1541   1.484       .  S
C1354      C1355   1.406       .  A
C1354      C1359   1.408       .  A
C1355      C1356   1.404       .  A
C1355      H1360   1.084       .  S
C1356      C1357   1.401       .  A
C1356      C1550   1.443       .  S
C1357      C1358   1.401       .  A
C1357      H1361   1.084       .  S
C1358      C1555   1.484       .  S
C1358      C1359   1.406       .  A
C1359      H1362   1.083       .  S
C1363      C1590   1.479       .  S
C1363      C1364   1.406       .  A
C1363      C1368   1.403       .  A
C1364      C1365   1.404       .  A
C1364      H1369   1.083       .  S
C1365      C1535   1.479       .  S
C1365      C1366   1.399       .  A
C1366      C1367   1.399       .  A
C1366      H1370   1.084   1_565  S
C1367      C1368   1.401       .  A
C1367      C1539   1.438       .  S
C1368      H1371   1.084       .  S
C1372      C1531   1.481       .  S
C1372      C1373   1.409       .  A
C1372      C1377   1.403       .  A
C1373      C1374   1.407       .  A
C1373      H1378   1.083       .  S
C1374      C1551   1.483       .  S
C1374      C1375   1.401       .  A
C1375      C1376   1.400       .  A
C1375      H1379   1.085       .  S
C1376      C1377   1.400       .  A
C1376      C1540   1.439       .  S
C1377      H1380   1.084       .  S
O1381      C1396   1.270       .  A
O1381     Al3213   1.946   1_455  S
C1382      O3216   1.263       .  A
C1382      O1383   1.260   1_565  A
C1382      C1536   1.471       .  S
O1384      C1386   1.262       .  A
O1384     Al1385   1.931       .  S
Al1385     O1393   1.930       .  S
Al1385     O1395   1.881       .  S
Al1385     O2306   1.775       .  S
C1386      O1399   1.258   1_455  A
C1386      C1572   1.474       .  S
O1387      C1397   1.271       .  A
O1388      C1401   1.264       .  A
O1388     Al1398   1.933       .  S
Al1389     O3205   1.952       .  S
Al1389     O3223   1.882       .  S
O1390      C1397   1.254       .  A
O1390     Al1398   1.868       .  S
O1391      C1400   1.261   1_655  A
O1391     Al3222   1.893       .  S
O1392      C3206   1.265       .  A
O1392     Al1398   1.929       .  S
O1394     Al2297   1.775   1_565  S
O1394     Al1398   1.774       .  S
O1395      C1396   1.262       .  A
C1396      C1618   1.475       .  S
C1397      C1546   1.473       .  S
Al1398     O3215   1.891       .  S
O1399     Al3213   1.885       .  S
C1400      C1598   1.470       .  S
C1401      O1402   1.258       .  A
C1401      C1608   1.476       .  S
O1403      C1418   1.261       .  A
O1403     Al1411   1.894       .  S
C1404      O1414   1.260       .  A
C1404      O1405   1.263       .  A
C1404      C1527   1.471       .  S
O1405     Al1407   1.922       .  S
O1406      C1408   1.260       .  A
O1406     Al1407   1.898       .  S
Al1407     O1415   1.897       .  S
Al1407     O1417   1.912       .  S
Al1407     O1416   1.778       .  S
C1408      O1421   1.262       .  A
C1408      C1524   1.474       .  S
O1409      C1419   1.262       .  A
O1409     Al1411   1.895       .  S
O1410      C1423   1.261       .  A
O1410     Al1420   1.894       .  S
Al1411     O1424   1.915       .  S
Al1411     O1421   1.922       .  S
Al1411     O1416   1.781       .  S
O1412      C1419   1.266       .  A
O1412     Al1420   1.938       .  S
O1413      C1422   1.266       .  A
O1413     Al1420   1.937       .  S
O1414     Al1420   1.890       .  S
O1415      C1422   1.259       .  A
O1416     Al1420   1.777       .  S
O1417      C1418   1.263       .  A
C1418      C1768   1.466       .  S
C1419      C1519   1.479       .  S
C1422      C1774   1.481       .  S
C1423      O1424   1.262       .  A
C1423      C1787   1.468       .  S
C1425      C1821   1.481       .  S
C1425      C1426   1.409       .  A
C1425      C1430   1.402       .  A
C1426      C1427   1.407       .  A
C1426      H1431   1.083       .  S
C1427      C1520   1.485       .  S
C1427      C1428   1.403       .  A
C1428      C1429   1.401       .  A
C1428      H1432   1.084       .  S
C1429      C1430   1.400       .  A
C1429      C1517   1.440       .  S
C1430      H1433   1.084       .  S
C1434      C1564   1.483       .  S
C1434      C1435   1.404       .  A
C1434      C1439   1.408       .  A
C1435      C1436   1.402       .  A
C1435      H1440   1.084       .  S
C1436      C1437   1.399       .  A
C1436      C1518   1.440       .  S
C1437      C1438   1.400       .  A
C1437      H1441   1.085       .  S
C1438      C1513   1.481       .  S
C1438      C1439   1.406       .  A
C1439      H1442   1.083       .  S
C1443      C1444   1.400       .  A
C1443      C3272   1.401       .  A
C1443      C1511   1.437       .  S
C1444      C1445   1.400       .  A
C1444      H1449   1.084       .  S
C1445      C1528   1.481       .  S
C1445      C3270   1.404       .  A
C1446      C3269   1.404       .  A
C1446      C1447   1.406   1_655  A
C1446      H1450   1.083       .  S
C1447      C1817   1.477       .  S
C1447      C1448   1.401       .  A
C1448      C3267   1.400   1_455  A
C1448      H1451   1.084       .  S
C1452      C1453   1.400       .  A
C1452      C1457   1.400       .  A
C1452      C1512   1.437       .  S
C1453      C1454   1.401       .  A
C1453      H1458   1.084       .  S
C1454      C1567   1.478       .  S
C1454      C1455   1.408       .  A
C1455      C1456   1.406       .  A
C1455      H1459   1.083       .  S
C1456      C1507   1.483       .  S
C1456      C1457   1.401       .  A
C1457      H1460   1.084       .  S
C1461      C1814   1.482       .  S
C1461      C1466   1.403       .  A
C1462      C1463   1.406       .  A
C1462      H1467   1.083       .  S
C1463      C1523   1.484       .  S
C1463      C1464   1.401       .  A
C1464      C1465   1.401       .  A
C1464      H1468   1.084       .  S
C1465      C1505   1.445       .  S
C1466      H1469   1.084       .  S
C1470      C1559   1.484       .  S
C1470      C1471   1.405       .  A
C1470      C1475   1.408       .  A
C1471      C1472   1.403       .  A
C1471      H1476   1.084       .  S
C1472      C1473   1.401       .  A
C1472      C1506   1.444       .  S
C1473      C1474   1.402       .  A
C1473      H1477   1.084       .  S
C1474      C1501   1.485       .  S
C1474      C1475   1.406       .  A
C1475      H1478   1.083       .  S
O1479      C1494   1.261       .  A
O1479     Al1487   1.894       .  S
C1480      O1490   1.261       .  A
C1480      O1481   1.264       .  A
C1480      C1508   1.475       .  S
O1481     Al1483   1.930       .  S
O1482      C1484   1.261       .  A
O1482     Al1483   1.894       .  S
Al1483     O1491   1.900       .  S
Al1483     O1493   1.925       .  S
Al1483     O1492   1.779       .  S
C1484      O1497   1.263       .  A
C1484      C1514   1.474       .  S
O1485      C1495   1.261       .  A
O1485     Al1487   1.894       .  S
O1486      C1499   1.261       .  A
O1486     Al1496   1.894       .  S
Al1487     O1500   1.922       .  S
Al1487     O1497   1.924       .  S
Al1487     O1492   1.779       .  S
O1488      C1495   1.265       .  A
O1488     Al1496   1.932       .  S
O1489      C1498   1.265       .  A
O1489     Al1496   1.928       .  S
O1490     Al1496   1.891       .  S
O1491      C1498   1.261       .  A
O1492     Al1496   1.778       .  S
O1493      C1494   1.264       .  A
C1494      C1532   1.474       .  S
C1495      C1502   1.477       .  S
C1498      C1542   1.476       .  S
C1499      O1500   1.264       .  A
C1499      C1575   1.471       .  S
C1501      C1502   1.346       .  D
C1501      H1503   1.087       .  S
C1502      H1504   1.086       .  S
C1505      C1506   1.209       .  T
C1507      C1508   1.345       .  D
C1507      H1509   1.087       .  S
C1508      H1510   1.086       .  S
C1511      C1512   1.204       .  T
C1513      C1514   1.343       .  D
C1513      H1515   1.087       .  S
C1514      H1516   1.086       .  S
C1517      C1518   1.206       .  T
C1519      C1520   1.346       .  D
C1519      H1521   1.086       .  S
C1520      H1522   1.087       .  S
C1523      C1524   1.344       .  D
C1523      H1525   1.087       .  S
C1524      H1526   1.086       .  S
C1527      C1528   1.344       .  D
C1527      H1529   1.086       .  S
C1528      H1530   1.087       .  S
C1531      C1532   1.344       .  D
C1531      H1533   1.087       .  S
C1532      H1534   1.086       .  S
C1535      C1536   1.343       .  D
C1535      H1537   1.087   1_565  S
C1536      H1538   1.086       .  S
C1541      C1542   1.346       .  D
C1541      H1543   1.086       .  S
C1542      H1544   1.087       .  S
C1545      C1546   1.337       .  D
C1545      H1547   1.087       .  S
C1546      H1548   1.087       .  S
C1549      C1550   1.208       .  T
C1551      C1552   1.345       .  D
C1551      H1553   1.087       .  S
C1552      H1554   1.086       .  S
C1555      C1556   1.345       .  D
C1555      H1557   1.087       .  S
C1556      H1558   1.086       .  S
C1559      C1560   1.345       .  D
C1559      H1561   1.086       .  S
C1560      H1562   1.086       .  S
C1563      C1564   1.345       .  D
C1563      H1565   1.086       .  S
C1564      H1566   1.086       .  S
C1567      C1568   1.342       .  D
C1567      H1569   1.087       .  S
C1568      H1570   1.087       .  S
C1571      C1572   1.345       .  D
C1571      H1573   1.087   1_455  S
C1572      H1574   1.086       .  S
C1575      C1576   1.342       .  D
C1575      H1577   1.087       .  S
C1576      H1578   1.087       .  S
C1579      C1580   1.342       .  D
C1579      H1581   1.087       .  S
C1580      H1582   1.086       .  S
C1583      C1584   1.203       .  T
C1584      C3140   1.435       .  S
C1585      C1586   1.342       .  D
C1585      H1587   1.086       .  S
C1586      H1588   1.087       .  S
C1589      C1590   1.345       .  D
C1589      H1591   1.086       .  S
C1590      H1592   1.087       .  S
C1593      C1594   1.340       .  D
C1593      H1595   1.087       .  S
C1594      H1596   1.087       .  S
C1597      C1598   1.343       .  D
C1597      H1599   1.087   1_455  S
C1598      H1600   1.087       .  S
C1601      C1602   1.342       .  D
C1601      H1603   1.086       .  S
C1602      H1604   1.087       .  S
C1605      C1606   1.203       .  T
C1607      C1608   1.346       .  D
C1607      H1609   1.087       .  S
C1608      H1610   1.086       .  S
C1611      C1612   1.343       .  D
C1611      H1613   1.086       .  S
C1612      H1614   1.087       .  S
C1615      C1616   1.207       .  T
C1617      C1618   1.346       .  D
C1617      H1619   1.087       .  S
C1618      H1620   1.086       .  S
C1621      C1622   1.342       .  D
C1621      H1623   1.087       .  S
C1622      H1624   1.086       .  S
C1625      C1626   1.204       .  T
C1627      C1628   1.347       .  D
C1627      H1629   1.086       .  S
C1628      H1630   1.087       .  S
C1631      C1632   1.343       .  D
C1631      H1633   1.086       .  S
C1632      H1634   1.087       .  S
C1635      C1636   1.344       .  D
C1635      H1637   1.086       .  S
C1636      H1638   1.087       .  S
C1639      C1640   1.347       .  D
C1639      H1641   1.086       .  S
C1640      H1642   1.087       .  S
C1643      C1644   1.347       .  D
C1643      H1645   1.086       .  S
C1644      H1646   1.087       .  S
C1647      C1648   1.210       .  T
C1649      C1650   1.345       .  D
C1649      H1651   1.086       .  S
C1650      H1652   1.087       .  S
C1653      C1654   1.343       .  D
C1653      H1655   1.087       .  S
C1654      H1656   1.087       .  S
C1657      C1658   1.206       .  T
C1659      C1660   1.345       .  D
C1659      H1661   1.087       .  S
C1660      H1662   1.086       .  S
C1663      C1664   1.343       .  D
C1663      H1665   1.086       .  S
C1664      H1666   1.087       .  S
C1667      C1668   1.205       .  T
C1669      C1670   1.344       .  D
C1669      H1671   1.086       .  S
C1670      H1672   1.087       .  S
C1673      C1674   1.345       .  D
C1673      H1675   1.086       .  S
C1674      H1676   1.087       .  S
C1677      C1678   1.345       .  D
C1677      H1679   1.087       .  S
C1678      H1680   1.086       .  S
C1681      C1682   1.344       .  D
C1681      H1683   1.086       .  S
C1682      H1684   1.087       .  S
C1685      C1686   1.343       .  D
C1685      H1687   1.087       .  S
C1686      H1688   1.087       .  S
C1689      C1690   1.344       .  D
C1689      H1691   1.087       .  S
C1690      H1692   1.086       .  S
C1693      C1694   1.344       .  D
C1693      H1695   1.086       .  S
C1694      H1696   1.086       .  S
C1697      C1698   1.343       .  D
C1697      H1699   1.087   1_455  S
C1698      H1700   1.086       .  S
C1701      C3526   1.206       .  T
C1702      C3525   1.205   1_455  T
C1703      C1704   1.351       .  D
C1703      H1705   1.086       .  S
C1704      H1706   1.086       .  S
C1707      C1708   1.349       .  D
C1707      H1709   1.085       .  S
C1708      H1710   1.086       .  S
C1711      C1712   1.215       .  T
C1713      C1714   1.344       .  D
C1713      H1715   1.087       .  S
C1714      H1716   1.086       .  S
C1717      C1718   1.347       .  D
C1717      H1719   1.086       .  S
C1718      H1720   1.087       .  S
C1721      C1722   1.343       .  D
C1721      H1723   1.087       .  S
C1722      H1724   1.086       .  S
C1725      C1726   1.344       .  D
C1725      H1727   1.087       .  S
C1726      H1728   1.087       .  S
C1729      C1730   1.346       .  D
C1729      H1731   1.086       .  S
C1730      H1732   1.086       .  S
C1733      C1734   1.346       .  D
C1733      H1735   1.086       .  S
C1734      H1736   1.087       .  S
C1737      C1738   1.345       .  D
C1737      H1739   1.087       .  S
C1738      H1740   1.086       .  S
C1741      C1742   1.343       .  D
C1741      H1743   1.087   1_565  S
C1742      H1744   1.086       .  S
C1747      C1748   1.340       .  D
C1747      H1749   1.086       .  S
C1748      H1750   1.087       .  S
C1751      C1752   1.344       .  D
C1751      H1753   1.087       .  S
C1752      H1754   1.087       .  S
C1755      C1756   1.337       .  D
C1755      H1757   1.087       .  S
C1756      H1758   1.088       .  S
C1759      C1760   1.342       .  D
C1759      H1761   1.087       .  S
C1760      H1762   1.087       .  S
C1763      C1764   1.348       .  D
C1763      H1765   1.087       .  S
C1764      H1766   1.085       .  S
C1767      C1768   1.343       .  D
C1767      H1769   1.086       .  S
C1768      H1770   1.087       .  S
C1771      C1772   1.205       .  T
C1773      C1774   1.351       .  D
C1773      H1775   1.086       .  S
C1774      H1776   1.086       .  S
C1777      C1778   1.337       .  D
C1777      H1779   1.087       .  S
C1778      H1780   1.088       .  S
C1781      C1782   1.349       .  D
C1781      H1783   1.085       .  S
C1782      H1784   1.086       .  S
C1785      C1786   1.216       .  T
C1787      C1788   1.341       .  D
C1787      H1789   1.087       .  S
C1788      H1790   1.087       .  S
C1791      C1792   1.341       .  D
C1791      H1793   1.087       .  S
C1792      H1794   1.086       .  S
C1795      C1796   1.344       .  D
C1795      H1797   1.087       .  S
C1796      H1798   1.086       .  S
C1799      C1800   1.201       .  T
C1801      C1802   1.348       .  D
C1801      H1803   1.086       .  S
C1802      H1804   1.087       .  S
C1805      C1806   1.343       .  D
C1805      H1807   1.086       .  S
C1806      H1808   1.087       .  S
C1809      C1810   1.342       .  D
C1809      H1811   1.087       .  S
C1810      H1812   1.086       .  S
C1813      C1814   1.343       .  D
C1813      H1815   1.086       .  S
C1814      H1816   1.087       .  S
C1817      C1818   1.343       .  D
C1817      H1819   1.087       .  S
C1818      H1820   1.087       .  S
C1821      C1822   1.343       .  D
C1821      H1823   1.087       .  S
C1822      H1824   1.087       .  S
O1825      C1840   1.266       .  A
O1825     Al1833   1.940       .  S
C1826      O1836   1.262       .  A
C1826      O1827   1.258       .  A
C1826      C2722   1.470       .  S
O1827     Al1829   1.883       .  S
O1828      C1830   1.272       .  A
O1828     Al1829   1.959       .  S
Al1829     O1837   1.952       .  S
Al1829     O1839   1.887       .  S
Al1829     O1838   1.772       .  S
C1830      O1843   1.252       .  A
C1830      C2717   1.477       .  S
O1831      C1841   1.268       .  A
O1831     Al1833   1.936       .  S
O1832      C1845   1.264       .  A
O1832     Al1842   1.928       .  S
Al1833     O1846   1.891       .  S
Al1833     O1843   1.866       .  S
Al1833     O1838   1.772       .  S
O1834      C1841   1.261       .  A
O1834     Al1842   1.884       .  S
O1835      C1844   1.262       .  A
O1835     Al1842   1.883       .  S
O1836     Al1842   1.927       .  S
O1837      C1844   1.272       .  A
O1838     Al1842   1.776       .  S
O1839      C1840   1.258       .  A
C1840      C2725   1.479       .  S
C1841      C2713   1.470       .  S
C1844      C2734   1.477       .  S
C1845      O1846   1.260       .  A
C1845      C2730   1.471       .  S
C1847      C2703   1.476       .  S
C1847      C1848   1.399       .  A
C1847      C1852   1.408       .  A
C1848      C1849   1.398       .  A
C1848      H1853   1.084       .  S
C1849      C1850   1.402       .  A
C1849      C2712   1.438       .  S
C1850      C1851   1.404       .  A
C1850      H1854   1.084       .  S
C1851      C2707   1.483       .  S
C1851      C1852   1.402       .  A
C1852      H1855   1.082       .  S
C1856      C2700   1.480       .  S
C1856      C1857   1.407       .  A
C1856      C1861   1.404       .  A
C1857      C1858   1.403       .  A
C1857      H1862   1.083       .  S
C1858      C2721   1.478       .  S
C1858      C1859   1.398       .  A
C1859      C1860   1.398       .  A
C1859      H1863   1.085       .  S
C1860      C1861   1.403       .  A
C1860      C2711   1.437       .  S
C1861      H1864   1.084       .  S
C1865      C1866   1.403       .  A
C1865      C1870   1.409       .  A
C1865      C2698   1.445       .  S
C1866      C1867   1.400       .  A
C1866      H1871   1.084       .  S
C1867      C2694   1.481       .  S
C1867      C1868   1.403       .  A
C1868      C1869   1.396       .  A
C1868      H1872   1.084       .  S
C1869      C2690   1.483       .  S
C1869      C1870   1.410       .  A
C1870      H1873   1.083       .  S
C1874      C1879   1.404       .  A
C1874      C2697   1.445       .  S
C1875      C1876   1.400       .  A
C1875      H1880   1.084       .  S
C1876      C2685   1.476       .  S
C1876      C1877   1.405       .  A
C1877      H1881   1.083       .  S
C1878      C2714   1.482       .  S
C1878      C1879   1.402       .  A
C1879      H1882   1.084       .  S
C1883      C2679   1.480       .  S
C1883      C2796   1.407   1_545  A
C1883      C1888   1.403       .  A
C1884      C2795   1.404       .  A
C1884      C1885   1.394       .  A
C1884      H1889   1.084       .  S
C1885      C2718   1.487       .  S
C1885      C1886   1.412       .  A
C1886      C1887   1.410       .  A
C1886      H1890   1.083       .  S
C1887      C2800   1.406       .  A
C1887      C2684   1.453       .  S
C1888      C2799   1.402   1_545  A
C1888      H1891   1.084       .  S
C1892      C1893   1.403       .  A
C1892      C1897   1.409       .  A
C1892      C2683   1.453       .  S
C1893      C1894   1.404       .  A
C1893      H1898   1.084       .  S
C1894      C2675   1.486       .  S
C1894      C1895   1.404       .  A
C1895      C1896   1.408       .  A
C1895      H1899   1.083       .  S
C1896      C2671   1.490       .  S
C1896      C1897   1.410       .  A
C1897      H1900   1.084       .  S
O1901      C1916   1.260       .  A
O1901     Al1909   1.915       .  S
C1902      O1912   1.262       .  A
C1902      O1903   1.257       .  A
C1902      C2676   1.477       .  S
O1903     Al1905   1.890       .  S
O1904      C1906   1.271       .  A
O1904     Al1905   1.954       .  S
Al1905     O1913   1.959       .  S
Al1905     O1915   1.898       .  S
Al1905     O1914   1.777       .  S
C1906      O1919   1.258       .  A
C1906      C2708   1.477       .  S
O1907      C1917   1.262       .  A
O1907     Al1909   1.914       .  S
O1908      C1921   1.264       .  A
O1908     Al1918   1.922       .  S
Al1909     O1922   1.893       .  S
Al1909     O1919   1.869       .  S
Al1909     O1914   1.773       .  S
O1910      C1917   1.261       .  A
O1910     Al1918   1.899       .  S
O1911      C1920   1.256       .  A
O1911     Al1918   1.874       .  S
O1912     Al1918   1.929       .  S
O1913      C1920   1.274       .  A
O1914     Al1918   1.779       .  S
O1915      C1916   1.260       .  A
C1916      C2659   1.474       .  S
C1917      C2693   1.466       .  S
C1920      C2663   1.480       .  S
C1921      O1922   1.262       .  A
C1921      C2667   1.467       .  S
C1923      C1924   1.401       .  A
C1923      C1928   1.399       .  A
C1923      C2657   1.440       .  S
C1924      C1925   1.403       .  A
C1924      H1929   1.084       .  S
C1925      C2653   1.485       .  S
C1925      C1926   1.408       .  A
C1926      C1927   1.410       .  A
C1926      H1930   1.083       .  S
C1927      C2660   1.482       .  S
C1927      C1928   1.402       .  A
C1928      H1931   1.084       .  S
C1932      C1933   1.399       .  A
C1932      C1937   1.400       .  A
C1932      C2658   1.435       .  S
C1933      C1934   1.399       .  A
C1933      H1938   1.084   1_545  S
C1934      C2649   1.480       .  S
C1934      C1935   1.406       .  A
C1935      C1936   1.407       .  A
C1935      H1939   1.083       .  S
C1936      C2645   1.478       .  S
C1936      C1937   1.401       .  A
C1937      H1940   1.084       .  S
O1941      C1956   1.261       .  A
O1941     Al1949   1.894       .  S
C1942      O1952   1.262       .  A
C1942      O1943   1.263       .  A
C1942      C2629   1.475       .  S
O1943     Al2857   1.926   1_545  S
O1944      C1946   1.261   1_455  A
Al1945     O2855   1.934       .  S
Al1945     O1953   1.893       .  S
C1946      O1959   1.264       .  A
C1946      C2626   1.476       .  S
O1947      C1957   1.261   1_565  A
O1947     Al2861   1.895       .  S
O1948      C1961   1.262       .  A
Al1949     O2859   1.891       .  S
Al1949     O2874   1.926       .  S
Al1949     O1959   1.931       .  S
Al1949     O1954   1.778       .  S
O1950      C1957   1.262       .  A
O1951      C1960   1.263       .  A
O1951     Al1958   1.918       .  S
O1952     Al1958   1.897       .  S
O1953      C2872   1.260       .  A
O1955      C1956   1.264       .  A
C1956      C2634   1.474       .  S
C1957      C2650   1.472       .  S
C1960      O2865   1.262   1_545  A
C1960      C2637   1.469       .  S
C1961      O1962   1.264       .  A
C1961      C2641   1.473       .  S
O1962     Al2861   1.925   1_545  S
C1963      C1964   1.403       .  A
C1963      C1968   1.400       .  A
C1963      C2623   1.440       .  S
C1964      C1965   1.404       .  A
C1964      H1969   1.084       .  S
C1965      C2620   1.484       .  S
C1965      C1966   1.402       .  A
C1966      C1967   1.405       .  A
C1966      H1970   1.083       .  S
C1967      C2668   1.477       .  S
C1967      C1968   1.400       .  A
C1968      H1971   1.084       .  S
C1972      C1973   1.400       .  A
C1972      C1977   1.402       .  A
C1972      C2624   1.440       .  S
C1973      C1974   1.400       .  A
C1973      H1978   1.084       .  S
C1974      C2630   1.483       .  S
C1974      C1975   1.406       .  A
C1975      C1976   1.408       .  A
C1975      H1979   1.083       .  S
C1976      C2615   1.482       .  S
C1976      C1977   1.404       .  A
C1977      H1980   1.084       .  S
C1981      C1982   1.412       .  A
C1981      C1986   1.406       .  A
C1981      C2614   1.455       .  S
C1982      C1983   1.413       .  A
C1982      H1987   1.083       .  S
C1983      C2664   1.484       .  S
C1983      C1984   1.396       .  A
C1984      C1985   1.401       .  A
C1984      H1988   1.083       .  S
C1985      C2609   1.485       .  S
C1985      C1986   1.405       .  A
C1986      H1989   1.084       .  S
C1990      C2605   1.484       .  S
C1990      C1991   1.405       .  A
C1990      C1995   1.408       .  A
C1991      C1992   1.403       .  A
C1991      H1996   1.084       .  S
C1992      C1993   1.400       .  A
C1992      C2613   1.443       .  S
C1993      C1994   1.401       .  A
C1993      H1997   1.084   1_655  S
C1994      C2625   1.483       .  S
C1994      C1995   1.406       .  A
C1995      H1998   1.083       .  S
O1999      C2014   1.263       .  A
O1999     Al2007   1.898       .  S
C2000      O2010   1.257       .  A
C2000      O2001   1.263       .  A
C2000      C2619   1.474       .  S
O2002      C2004   1.260       .  A
O2002     Al2915   1.891       .  S
Al2003     O2914   1.885       .  S
Al2003     O2011   1.891       .  S
Al2003     O2925   1.921   1_545  S
Al2003     O2924   1.776   1_545  S
C2004      O2017   1.266       .  A
C2004      C2654   1.479       .  S
O2005      C2015   1.261       .  A
O2006      C2019   1.261       .  A
O2006     Al2928   1.906       .  S
Al2007     O2017   1.942       .  S
Al2007     O2012   1.775       .  S
O2008      C2015   1.268       .  A
O2008     Al2928   1.932       .  S
O2009      C2018   1.272       .  A
O2009     Al2016   1.956       .  S
O2010     Al2016   1.886       .  S
O2012     Al2915   1.774       .  S
O2013      C2014   1.262       .  A
O2013     Al2915   1.908       .  S
C2014      C2704   1.464       .  S
C2015      C2610   1.471       .  S
Al2016     O2918   1.890   1_545  S
Al2016     O2920   1.946   1_545  S
C2018      C2689   1.475       .  S
C2019      O2020   1.265       .  A
C2019      C2672   1.480       .  S
O2021      C2036   1.263       .  A
O2021     Al2029   1.923       .  S
C2022      O2032   1.263       .  A
C2022      O2023   1.261       .  A
C2022      C2581   1.471       .  S
O2023     Al2025   1.891   1_554  S
O2024      C2026   1.264       .  A
O2024     Al2025   1.928   1_554  S
Al2025     O2033   1.926       .  S
Al2025     O2035   1.894       .  S
Al2025     O2034   1.777       .  S
C2026      O2039   1.261       .  A
C2026      C2590   1.474       .  S
O2027      C2037   1.263       .  A
O2027     Al2029   1.925   1_554  S
O2028      C2041   1.262       .  A
O2028     Al2038   1.918       .  S
Al2029     O2042   1.891       .  S
Al2029     O2039   1.891   1_556  S
Al2029     O2034   1.777       .  S
O2030      C2037   1.261       .  A
O2030     Al2038   1.892   1_554  S
O2031      C2040   1.261       .  A
O2031     Al2038   1.895       .  S
O2032     Al2038   1.923   1_554  S
O2033      C2040   1.264       .  A
O2034     Al2038   1.779       .  S
O2035      C2036   1.261       .  A
C2036      C2593   1.472       .  S
C2037      C2585   1.473       .  S
C2040      C2601   1.473       .  S
C2041      O2042   1.261       .  A
C2041      C2597   1.469       .  S
C2043      C2575   1.480       .  S
C2043      C2044   1.407       .  A
C2043      C2048   1.403       .  A
C2044      C2045   1.405       .  A
C2044      H2049   1.083       .  S
C2045      C2582   1.480       .  S
C2045      C2046   1.399       .  A
C2046      C2047   1.400       .  A
C2046      H2050   1.084       .  S
C2047      C2048   1.402       .  A
C2047      C2579   1.438       .  S
C2048      H2051   1.084       .  S
C2052      C2633   1.481       .  S
C2052      C2053   1.403       .  A
C2052      C2057   1.408       .  A
C2053      C2054   1.401       .  A
C2053      H2058   1.084       .  S
C2054      C2055   1.400       .  A
C2054      C2580   1.438       .  S
C2055      C2056   1.401       .  A
C2055      H2059   1.085       .  S
C2056      C2571   1.482       .  S
C2056      C2057   1.406       .  A
C2057      H2060   1.083       .  S
C2061      C2062   1.398       .  A
C2061      C2978   1.397   1_545  A
C2061      C2569   1.432       .  S
C2062      C2063   1.399       .  A
C2062      H2067   1.084       .  S
C2063      C2586   1.480       .  S
C2063      C2976   1.406       .  A
C2064      C2975   1.406       .  A
C2064      C2065   1.408       .  A
C2064      H2068   1.083       .  S
C2065      C2566   1.480       .  S
C2065      C2066   1.403       .  A
C2066      C2973   1.401       .  A
C2066      H2069   1.084       .  S
C2070      C2071   1.397       .  A
C2070      C2075   1.399       .  A
C2070      C2570   1.432       .  S
C2071      C2072   1.399       .  A
C2071      H2076   1.084       .  S
C2072      C2638   1.476       .  S
C2072      C2073   1.408       .  A
C2073      C2074   1.406       .  A
C2073      H2077   1.083       .  S
C2074      C2562   1.481       .  S
C2074      C2075   1.400       .  A
C2075      H2078   1.084       .  S
C2079      C2555   1.482       .  S
C2079      C2084   1.404       .  A
C2080      C2081   1.406       .  A
C2080      H2085   1.083       .  S
C2081      C2589   1.481       .  S
C2081      C2082   1.400       .  A
C2082      C2083   1.399       .  A
C2082      H2086   1.085       .  S
C2083      C2560   1.438       .  S
C2084      H2087   1.084       .  S
C2088      C2642   1.480       .  S
C2088      C2089   1.402       .  A
C2088      C2093   1.408       .  A
C2089      C2090   1.400       .  A
C2089      H2094   1.084       .  S
C2090      C2091   1.400       .  A
C2090      C2559   1.438       .  S
C2091      C2092   1.401       .  A
C2091      H2095   1.084       .  S
C2092      C2552   1.483       .  S
C2092      C2093   1.407       .  A
C2093      H2096   1.083       .  S
O2097      C2112   1.264       .  A
O2097     Al2105   1.926       .  S
C2098      O2108   1.263       .  A
C2098      O2099   1.261       .  A
C2098      C2551   1.475       .  S
O2099     Al2101   1.895       .  S
O2100      C2102   1.263       .  A
O2100     Al2101   1.925       .  S
Al2101     O2109   1.923       .  S
Al2101     O2111   1.899       .  S
Al2101     O2110   1.780       .  S
C2102      O2115   1.261       .  A
C2102      C2572   1.474       .  S
O2103      C2113   1.264       .  A
O2103     Al2105   1.928       .  S
O2104      C2117   1.264       .  A
O2104     Al2114   1.924       .  S
Al2105     O2118   1.900       .  S
Al2105     O2115   1.893       .  S
Al2105     O2110   1.778       .  S
O2106      C2113   1.261       .  A
O2106     Al2114   1.892       .  S
O2107      C2116   1.262       .  A
O2107     Al2114   1.893       .  S
O2108     Al2114   1.928       .  S
O2109      C2116   1.264       .  A
O2110     Al2114   1.779       .  S
O2111      C2112   1.262       .  A
C2112      C2606   1.476       .  S
C2113      C2561   1.474       .  S
C2116      C2646   1.471       .  S
C2117      O2118   1.262       .  A
C2117      C2616   1.475       .  S
O2119      C2134   1.261       .  A
O2119     Al2127   1.897   1_554  S
C2120      O2130   1.261       .  A
C2120      O2121   1.264       .  A
C2120      C2539   1.476       .  S
O2121     Al2123   1.928   1_556  S
O2122      C2124   1.260       .  A
O2122     Al2123   1.888   1_556  S
Al2123     O2131   1.894       .  S
Al2123     O2133   1.926       .  S
Al2123     O2132   1.777       .  S
C2124      O2137   1.263       .  A
C2124      C2547   1.472       .  S
O2125      C2135   1.261       .  A
O2125     Al2127   1.891       .  S
O2126      C2139   1.262       .  A
O2126     Al2136   1.895       .  S
Al2127     O2140   1.922   1_556  S
Al2127     O2137   1.926       .  S
Al2127     O2132   1.779   1_556  S
O2128      C2135   1.263       .  A
O2128     Al2136   1.925   1_556  S
O2129      C2138   1.264       .  A
O2129     Al2136   1.923       .  S
O2130     Al2136   1.897   1_556  S
O2131      C2138   1.261       .  A
O2132     Al2136   1.780       .  S
O2133      C2134   1.264       .  A
C2134      C2556   1.475       .  S
C2135      C2543   1.473       .  S
C2138      C2565   1.472       .  S
C2139      O2140   1.264       .  A
C2139      C2576   1.472       .  S
C2141      C2529   1.482       .  S
C2141      C2142   1.404       .  A
C2141      C2146   1.408       .  A
C2142      C2143   1.400       .  A
C2142      H2147   1.084       .  S
C2143      C2144   1.398       .  A
C2143      C2537   1.438       .  S
C2144      C2145   1.400       .  A
C2144      H2148   1.085       .  S
C2145      C2533   1.480       .  S
C2145      C2146   1.407       .  A
C2146      H2149   1.083       .  S
C2150      C2602   1.481       .  S
C2150      C2151   1.404       .  A
C2150      C2155   1.407       .  A
C2151      C2152   1.402       .  A
C2151      H2156   1.084       .  S
C2152      C2153   1.399       .  A
C2152      C2538   1.438       .  S
C2153      C2154   1.399       .  A
C2153      H2157   1.084       .  S
C2154      C2544   1.481       .  S
C2154      C2155   1.405       .  A
C2155      H2158   1.083       .  S
C2159      C2160   1.400       .  A
C2159      C2164   1.405       .  A
C2159      C2527   1.444       .  S
C2160      C2161   1.400       .  A
C2160      H2165   1.085       .  S
C2161      C2524   1.482       .  S
C2161      C2162   1.406       .  A
C2162      C2163   1.407       .  A
C2162      H2166   1.083       .  S
C2163      C2519   1.485       .  S
C2163      C2164   1.407       .  A
C2164      H2167   1.084       .  S
C2168      C3081   1.402       .  A
C2168      C2173   1.401       .  A
C2168      C2528   1.444       .  S
C2169      C3080   1.396   1_545  A
C2169      C2170   1.398       .  A
C2169      H2174   1.085       .  S
C2170      C2598   1.474       .  S
C2170      C2171   1.409   1_545  A
C2171      C3084   1.407       .  A
C2171      H2175   1.083       .  S
C2172      C2540   1.486       .  S
C2172      C3083   1.407       .  A
C2172      C2173   1.403       .  A
C2173      H2176   1.084       .  S
C2177      C2509   1.476       .  S
C2177      C2178   1.400       .  A
C2177      C2182   1.407       .  A
C2178      C2179   1.399       .  A
C2178      H2183   1.084       .  S
C2179      C2180   1.399       .  A
C2179      C2518   1.434       .  S
C2180      C2181   1.399       .  A
C2180      H2184   1.084       .  S
C2181      C2514   1.480       .  S
C2181      C2182   1.405       .  A
C2182      H2185   1.083       .  S
C2186      C2594   1.479       .  S
C2186      C2191   1.401       .  A
C2187      C2188   1.406       .  A
C2188      C2548   1.479       .  S
C2188      C2189   1.399       .  A
C2189      C2190   1.398       .  A
C2189      H2193   1.085       .  S
C2190      C2517   1.434       .  S
C2191      H2194   1.084       .  S
O2195      C2210   1.261       .  A
O2195     Al2203   1.892       .  S
C2196      O2206   1.261       .  A
C2196      O2197   1.262       .  A
C2196      C2523   1.473       .  S
O2197     Al2199   1.922       .  S
O2198      C2200   1.262       .  A
O2198     Al2199   1.893       .  S
Al2199     O2207   1.896       .  S
Al2199     O2209   1.913       .  S
Al2199     O2208   1.780       .  S
C2200      O2213   1.264       .  A
C2200      C2534   1.472       .  S
O2201      C2211   1.260       .  A
O2201     Al2203   1.890       .  S
O2202      C2215   1.258       .  A
O2202     Al2212   1.885       .  S
Al2203     O2216   1.926       .  S
Al2203     O2213   1.924       .  S
Al2203     O2208   1.778       .  S
O2204      C2211   1.262       .  A
O2204     Al2212   1.920       .  S
O2205      C2214   1.261       .  A
O2205     Al2212   1.905       .  S
O2206     Al2212   1.896       .  S
O2207      C2214   1.261       .  A
O2208     Al2212   1.777       .  S
O2209      C2210   1.261       .  A
C2210      C2506   1.468       .  S
C2211      C2513   1.472       .  S
C2214      C2498   1.463       .  S
C2215      O2216   1.264       .  A
C2215      C2501   1.470       .  S
C2217      C2488   1.475       .  S
C2217      C2218   1.399       .  A
C2217      C2222   1.408       .  A
C2218      C2219   1.397       .  A
C2218      H2223   1.084       .  S
C2219      C2220   1.397       .  A
C2219      C2495   1.430       .  S
C2220      C2221   1.398       .  A
C2220      H2224   1.085       .  S
C2221      C2491   1.478       .  S
C2221      C2222   1.406       .  A
C2222      H2225   1.083       .  S
C2226      C2505   1.476       .  S
C2226      C2227   1.399       .  A
C2226      C2231   1.408       .  A
C2227      C2228   1.397       .  A
C2227      H2232   1.084       .  S
C2228      C2229   1.398       .  A
C2229      C2230   1.400       .  A
C2229      H2233   1.085       .  S
C2230      C2483   1.480       .  S
C2230      C2231   1.406       .  A
C2231      H2234   1.083       .  S
O2235      C2250   1.264       .  A
O2235     Al3155   1.927   1_545  S
C2236      O2246   1.262       .  A
C2236      O2237   1.261   1_655  A
C2236      C2492   1.471       .  S
O2238      C2240   1.264       .  A
O2238     Al2239   1.931       .  S
Al2239     O2249   1.897       .  S
C2240      O2253   1.260   1_545  A
C2240      C2464   1.475       .  S
O2241      C2251   1.264       .  A
O2242      C2255   1.262       .  A
O2242     Al2252   1.915       .  S
Al2243     O3147   1.928       .  S
Al2243     O3165   1.889       .  S
O2244      C2251   1.262       .  A
O2244     Al2252   1.898       .  S
O2245      C2254   1.262       .  A
O2245     Al3164   1.894   1_545  S
O2246     Al3164   1.921   1_545  S
O2247      C2254   1.264       .  A
O2248     Al3164   1.780   1_545  S
O2249      C2250   1.261       .  A
C2250      C2475   1.476       .  S
C2251      C2468   1.476       .  S
Al2252     O3157   1.898       .  S
Al2252     O3158   1.917       .  S
Al2252     O3160   1.781       .  S
O2253     Al3155   1.890       .  S
C2254      C2472   1.472       .  S
C2255      O2256   1.261       .  A
C2255      C2480   1.466       .  S
C2257      C2258   1.402       .  A
C2257      C2262   1.405       .  A
C2257      C2461   1.441       .  S
C2258      C2259   1.400       .  A
C2258      H2263   1.084       .  S
C2259      C2497   1.476       .  S
C2259      C2260   1.404       .  A
C2260      C2261   1.393       .  A
C2260      H2264   1.084       .  S
C2261      C2457   1.481       .  S
C2261      C2262   1.408       .  A
C2262      H2265   1.083       .  S
C2266      C2453   1.483       .  S
C2266      C2267   1.404       .  A
C2266      C2271   1.409       .  A
C2267      C2268   1.403       .  A
C2267      H2272   1.084       .  S
C2268      C2269   1.400       .  A
C2268      C2462   1.441       .  S
C2269      C2270   1.401       .  A
C2269      H2273   1.084       .  S
C2270      C2467   1.484       .  S
C2270      C2271   1.406       .  A
C2271      H2274   1.083       .  S
C2275      C2502   1.479       .  S
C2275      C2276   1.403       .  A
C2275      C2280   1.403       .  A
C2276      C2277   1.402       .  A
C2276      H2281   1.082       .  S
C2277      C2447   1.480       .  S
C2277      C2278   1.400       .  A
C2278      C2279   1.401       .  A
C2278      H2282   1.084       .  S
C2279      C2280   1.403       .  A
C2279      C2451   1.440       .  S
C2280      H2283   1.084       .  S
C2284      C2443   1.479       .  S
C2284      C2285   1.408       .  A
C2284      C2289   1.401       .  A
C2285      C2286   1.406       .  A
C2285      H2290   1.083       .  S
C2286      C2463   1.482       .  S
C2286      C2287   1.401       .  A
C2287      C2288   1.400       .  A
C2287      H2291   1.084   1_545  S
C2288      C2289   1.399       .  A
C2288      C2452   1.437       .  S
C2289      H2292   1.084       .  S
O2293      C2308   1.270       .  A
C2294      O2295   1.261       .  A
C2294      C2448   1.467       .  S
O2295     Al3209   1.888       .  S
O2296      C2298   1.262       .  A
O2296     Al2297   1.930       .  S
Al2297     O3207   1.888       .  S
Al2297     O2305   1.929   1_545  S
Al2297     O2307   1.882       .  S
C2298      O2311   1.257       .  A
C2298      C2484   1.473       .  S
O2299      C2309   1.271       .  A
O2299     Al3213   1.950       .  S
O2300      C2313   1.265       .  A
O2300     Al2310   1.934       .  S
Al2301     O3211   1.926   1_545  S
Al2301     O3226   1.891       .  S
Al2301     O3218   1.776   1_545  S
O2302      C2309   1.253       .  A
O2302     Al2310   1.866       .  S
O2303      C2312   1.261       .  A
O2304     Al2310   1.930   1_455  S
O2305      C3224   1.265       .  A
O2306     Al3213   1.773   1_455  S
O2306     Al2310   1.774   1_455  S
O2307      C2308   1.262       .  A
C2308      C2530   1.476       .  S
C2309      C2458   1.472       .  S
C2312      O3217   1.265       .  A
C2312      C2510   1.470       .  S
C2313      O2314   1.258       .  A
C2313      C2520   1.478       .  S
O2314     Al3213   1.891       .  S
O2315      C2330   1.261       .  A
O2315     Al2323   1.896       .  S
C2316      O2326   1.261       .  A
C2316      O2317   1.263       .  A
C2316      C2439   1.475       .  S
O2317     Al2319   1.927       .  S
O2318      C2320   1.261       .  A
O2318     Al2319   1.893       .  S
Al2319     O2327   1.891       .  S
Al2319     O2329   1.920       .  S
Al2319     O2328   1.778       .  S
C2320      O2333   1.263       .  A
C2320      C2436   1.474       .  S
O2321      C2331   1.261       .  A
O2321     Al2323   1.894       .  S
O2322      C2335   1.261       .  A
O2322     Al2332   1.896       .  S
Al2323     O2336   1.920       .  S
Al2323     O2333   1.927       .  S
Al2323     O2328   1.778       .  S
O2324      C2331   1.263       .  A
O2324     Al2332   1.923       .  S
O2325      C2334   1.263       .  A
O2325     Al2332   1.918       .  S
O2326     Al2332   1.893       .  S
O2327      C2334   1.260       .  A
O2328     Al2332   1.779       .  S
O2329      C2330   1.263       .  A
C2330      C2680   1.471       .  S
C2331      C2431   1.473       .  S
C2334      C2686   1.468       .  S
C2335      O2336   1.263       .  A
C2335      C2699   1.471       .  S
C2337      C2733   1.483       .  S
C2337      C2338   1.407       .  A
C2337      C2342   1.405       .  A
C2338      C2339   1.406       .  A
C2338      H2343   1.082       .  S
C2339      C2432   1.482       .  S
C2339      C2340   1.400       .  A
C2340      C2341   1.400       .  A
C2340      H2344   1.084       .  S
C2341      C2342   1.402       .  A
C2341      C2429   1.442       .  S
C2342      H2345   1.084       .  S
C2346      C2476   1.484       .  S
C2346      C2347   1.405       .  A
C2346      C2351   1.408       .  A
C2347      C2348   1.403       .  A
C2347      H2352   1.084       .  S
C2348      C2349   1.400       .  A
C2348      C2430   1.441       .  S
C2349      C2350   1.400       .  A
C2349      H2353   1.085       .  S
C2350      C2425   1.482       .  S
C2350      C2351   1.406       .  A
C2351      H2354   1.083       .  S
C2355      C2356   1.398       .  A
C2355      C2423   1.429       .  S
C2356      C2357   1.400       .  A
C2356      H2361   1.084       .  S
C2357      C2440   1.481       .  S
C2358      C2359   1.408       .  A
C2358      H2362   1.083       .  S
C2359      C2729   1.477       .  S
C2359      C2360   1.400       .  A
C2360      H2363   1.084       .  S
C2364      C2365   1.397       .  A
C2364      C2369   1.398       .  A
C2364      C2424   1.429       .  S
C2365      C2366   1.397       .  A
C2365      H2370   1.084       .  S
C2366      C2479   1.472       .  S
C2366      C2367   1.407       .  A
C2367      C2368   1.405       .  A
C2367      H2371   1.083       .  S
C2368      C2419   1.478       .  S
C2368      C2369   1.398       .  A
C2369      H2372   1.084       .  S
C2373      C2726   1.486       .  S
C2373      C3286   1.406       .  A
C2373      C2378   1.407       .  A
C2374      C3285   1.409   1_545  A
C2374      C2375   1.406       .  A
C2374      H2379   1.083       .  S
C2375      C2435   1.481       .  S
C2375      C2376   1.400       .  A
C2376      C2377   1.399       .  A
C2376      H2380   1.085       .  S
C2377      C3290   1.400   1_545  A
C2377      C2417   1.436       .  S
C2378      C3289   1.405       .  A
C2378      H2381   1.084       .  S
C2382      C2471   1.479       .  S
C2382      C2383   1.401       .  A
C2382      C2387   1.409       .  A
C2383      C2384   1.399       .  A
C2383      H2388   1.084       .  S
C2384      C2385   1.399       .  A
C2384      C2418   1.436       .  S
C2385      C2386   1.400       .  A
C2385      H2389   1.084       .  S
C2386      C2413   1.481       .  S
C2386      C2387   1.407       .  A
C2387      H2390   1.083       .  S
O2391      C2406   1.261       .  A
O2391     Al2399   1.891       .  S
C2392      O2402   1.261       .  A
C2392      O2393   1.264       .  A
C2392      C2420   1.471       .  S
O2393     Al2395   1.926       .  S
O2394      C2396   1.261       .  A
O2394     Al2395   1.894       .  S
Al2395     O2403   1.902       .  S
Al2395     O2405   1.924       .  S
Al2395     O2404   1.779       .  S
C2396      O2409   1.263       .  A
C2396      C2426   1.474       .  S
O2397      C2407   1.261       .  A
O2397     Al2399   1.893       .  S
O2398      C2411   1.262       .  A
O2398     Al2408   1.892       .  S
Al2399     O2412   1.921       .  S
Al2399     O2409   1.924       .  S
Al2399     O2404   1.779       .  S
O2400      C2407   1.263       .  A
O2400     Al2408   1.927       .  S
O2401      C2410   1.263       .  A
O2401     Al2408   1.923       .  S
O2402     Al2408   1.887       .  S
O2403      C2410   1.262       .  A
O2404     Al2408   1.778       .  S
O2405      C2406   1.264       .  A
C2406      C2444   1.472       .  S
C2407      C2414   1.474       .  S
C2410      C2454   1.475       .  S
C2411      O2412   1.263       .  A
C2411      C2487   1.469       .  S
C2413      C2414   1.343       .  D
C2413      H2415   1.087       .  S
C2414      H2416   1.086       .  S
C2417      C2418   1.204       .  T
C2419      C2420   1.343       .  D
C2419      H2421   1.087       .  S
C2420      H2422   1.086       .  S
C2423      C2424   1.199       .  T
C2425      C2426   1.344       .  D
C2425      H2427   1.087       .  S
C2426      H2428   1.086       .  S
C2429      C2430   1.207       .  T
C2431      C2432   1.343       .  D
C2431      H2433   1.086       .  S
C2432      H2434   1.087       .  S
C2435      C2436   1.343       .  D
C2435      H2437   1.087       .  S
C2436      H2438   1.086       .  S
C2439      C2440   1.343       .  D
C2439      H2441   1.086       .  S
C2440      H2442   1.087       .  S
C2443      C2444   1.343       .  D
C2443      H2445   1.087       .  S
C2444      H2446   1.086       .  S
C2447      C2448   1.344       .  D
C2447      H2449   1.087       .  S
C2448      H2450   1.085       .  S
C2451      C3364   1.206       .  T
C2452      C3363   1.204   1_545  T
C2453      C2454   1.344       .  D
C2453      H2455   1.086       .  S
C2454      H2456   1.087       .  S
C2457      C2458   1.336       .  D
C2457      H2459   1.087       .  S
C2458      H2460   1.087       .  S
C2461      C2462   1.207       .  T
C2463      C2464   1.345       .  D
C2463      H2465   1.087   1_545  S
C2464      H2466   1.086       .  S
C2467      C2468   1.344       .  D
C2467      H2469   1.087       .  S
C2468      H2470   1.086       .  S
C2471      C2472   1.342       .  D
C2471      H2473   1.087       .  S
C2472      H2474   1.087       .  S
C2475      C2476   1.345       .  D
C2475      H2477   1.086       .  S
C2476      H2478   1.086       .  S
C2479      C2480   1.339       .  D
C2479      H2481   1.087       .  S
C2480      H2482   1.087       .  S
C2483      C2484   1.344       .  D
C2483      H2485   1.087       .  S
C2484      H2486   1.086       .  S
C2487      C2488   1.340       .  D
C2487      H2489   1.087       .  S
C2488      H2490   1.087       .  S
C2491      C2492   1.341       .  D
C2491      H2493   1.087   1_655  S
C2492      H2494   1.086       .  S
C2495      C2496   1.200       .  T
C2497      C2498   1.341       .  D
C2497      H2499   1.086       .  S
C2498      H2500   1.087       .  S
C2501      C2502   1.346       .  D
C2501      H2503   1.087       .  S
C2502      H2504   1.086       .  S
C2505      C2506   1.340       .  D
C2505      H2507   1.087       .  S
C2506      H2508   1.086       .  S
C2509      C2510   1.342       .  D
C2509      H2511   1.087       .  S
C2510      H2512   1.087       .  S
C2513      C2514   1.343       .  D
C2513      H2515   1.086       .  S
C2514      H2516   1.087       .  S
C2517      C2518   1.202       .  T
C2519      C2520   1.348       .  D
C2519      H2521   1.087       .  S
C2520      H2522   1.086       .  S
C2523      C2524   1.343       .  D
C2523      H2525   1.086       .  S
C2524      H2526   1.087       .  S
C2527      C2528   1.208       .  T
C2529      C2530   1.347       .  D
C2529      H2531   1.087       .  S
C2530      H2532   1.086       .  S
C2533      C2534   1.342       .  D
C2533      H2535   1.087       .  S
C2534      H2536   1.086       .  S
C2537      C2538   1.205       .  T
C2539      C2540   1.345       .  D
C2539      H2541   1.086       .  S
C2540      H2542   1.087       .  S
C2543      C2544   1.343       .  D
C2543      H2545   1.086       .  S
C2544      H2546   1.087       .  S
C2547      C2548   1.343       .  D
C2547      H2549   1.086       .  S
C2548      H2550   1.087       .  S
C2551      C2552   1.344       .  D
C2551      H2553   1.086       .  S
C2552      H2554   1.087       .  S
C2555      C2556   1.344       .  D
C2555      H2557   1.086       .  S
C2556      H2558   1.086       .  S
C2559      C2560   1.205       .  T
C2561      C2562   1.343       .  D
C2561      H2563   1.086       .  S
C2562      H2564   1.087       .  S
C2565      C2566   1.343       .  D
C2565      H2567   1.087       .  S
C2566      H2568   1.087       .  S
C2569      C2570   1.201       .  T
C2571      C2572   1.344       .  D
C2571      H2573   1.087       .  S
C2572      H2574   1.086       .  S
C2575      C2576   1.344       .  D
C2575      H2577   1.086       .  S
C2576      H2578   1.087       .  S
C2579      C2580   1.205       .  T
C2581      C2582   1.343       .  D
C2581      H2583   1.086       .  S
C2582      H2584   1.087       .  S
C2585      C2586   1.342       .  D
C2585      H2587   1.086       .  S
C2586      H2588   1.087       .  S
C2589      C2590   1.344       .  D
C2589      H2591   1.087       .  S
C2590      H2592   1.086       .  S
C2593      C2594   1.342       .  D
C2593      H2595   1.086       .  S
C2594      H2596   1.087       .  S
C2597      C2598   1.340       .  D
C2597      H2599   1.087       .  S
C2598      H2600   1.087       .  S
C2601      C2602   1.344       .  D
C2601      H2603   1.086       .  S
C2602      H2604   1.087       .  S
C2605      C2606   1.345       .  D
C2605      H2607   1.086       .  S
C2606      H2608   1.086       .  S
C2609      C2610   1.349       .  D
C2609      H2611   1.087       .  S
C2610      H2612   1.085       .  S
C2615      C2616   1.344       .  D
C2615      H2617   1.086       .  S
C2616      H2618   1.087       .  S
C2619      C2620   1.348       .  D
C2619      H2621   1.085       .  S
C2620      H2622   1.087       .  S
C2623      C2624   1.206       .  T
C2625      C2626   1.345       .  D
C2625      H2627   1.087   1_655  S
C2626      H2628   1.086       .  S
C2629      C2630   1.343       .  D
C2629      H2631   1.086       .  S
C2630      H2632   1.087       .  S
C2633      C2634   1.344       .  D
C2633      H2635   1.087       .  S
C2634      H2636   1.086       .  S
C2637      C2638   1.340       .  D
C2637      H2639   1.087       .  S
C2638      H2640   1.087   1_545  S
C2641      C2642   1.343       .  D
C2641      H2643   1.087       .  S
C2642      H2644   1.087       .  S
C2645      C2646   1.342       .  D
C2645      H2647   1.087       .  S
C2646      H2648   1.087       .  S
C2649      C2650   1.342       .  D
C2649      H2651   1.087   1_545  S
C2650      H2652   1.086       .  S
C2653      C2654   1.347       .  D
C2653      H2655   1.087       .  S
C2654      H2656   1.086       .  S
C2657      C3570   1.206       .  T
C2658      C3569   1.203   1_545  T
C2659      C2660   1.343       .  D
C2659      H2661   1.086       .  S
C2660      H2662   1.087       .  S
C2663      C2664   1.337       .  D
C2663      H2665   1.087       .  S
C2664      H2666   1.087       .  S
C2667      C2668   1.342       .  D
C2667      H2669   1.087       .  S
C2668      H2670   1.087       .  S
C2671      C2672   1.349       .  D
C2671      H2673   1.086       .  S
C2672      H2674   1.086       .  S
C2675      C2676   1.348       .  D
C2675      H2677   1.087       .  S
C2676      H2678   1.086       .  S
C2679      C2680   1.343       .  D
C2679      H2681   1.086       .  S
C2680      H2682   1.087       .  S
C2683      C2684   1.214       .  T
C2685      C2686   1.342       .  D
C2685      H2687   1.086       .  S
C2686      H2688   1.087       .  S
C2689      C2690   1.337       .  D
C2689      H2691   1.087       .  S
C2690      H2692   1.088       .  S
C2693      C2694   1.343       .  D
C2693      H2695   1.086       .  S
C2694      H2696   1.086       .  S
C2697      C2698   1.209       .  T
C2699      C2700   1.344       .  D
C2699      H2701   1.087       .  S
C2700      H2702   1.086       .  S
C2703      C2704   1.339       .  D
C2703      H2705   1.087       .  S
C2704      H2706   1.087       .  S
C2707      C2708   1.351       .  D
C2707      H2709   1.087       .  S
C2708      H2710   1.085       .  S
C2711      C2712   1.205       .  T
C2713      C2714   1.348       .  D
C2713      H2715   1.085       .  S
C2714      H2716   1.087       .  S
C2717      C2718   1.337       .  D
C2717      H2719   1.087       .  S
C2718      H2720   1.087       .  S
C2721      C2722   1.344       .  D
C2721      H2723   1.087       .  S
C2722      H2724   1.086       .  S
C2725      C2726   1.349       .  D
C2725      H2727   1.086       .  S
C2726      H2728   1.087       .  S
C2729      C2730   1.342       .  D
C2729      H2731   1.087       .  S
C2730      H2732   1.087       .  S
C2733      C2734   1.348       .  D
C2733      H2735   1.087       .  S
C2734      H2736   1.086       .  S
O2737      C2752   1.263       .  A
O2737     Al2745   1.924       .  S
C2738      O2748   1.262       .  A
C2738      O2739   1.261       .  A
C2738      C3634   1.472       .  S
O2739     Al2741   1.886       .  S
O2740      C2742   1.265       .  A
O2740     Al2741   1.930       .  S
Al2741     O2749   1.920       .  S
Al2741     O2751   1.897       .  S
Al2741     O2750   1.779       .  S
C2742      O2755   1.261       .  A
C2742      C3629   1.472       .  S
O2743      C2753   1.264       .  A
O2743     Al2745   1.930       .  S
O2744      C2757   1.265       .  A
O2744     Al2754   1.927       .  S
Al2745     O2758   1.889       .  S
Al2745     O2755   1.888       .  S
Al2745     O2750   1.779       .  S
O2746      C2753   1.260       .  A
O2746     Al2754   1.896       .  S
O2747      C2756   1.262       .  A
O2747     Al2754   1.898       .  S
O2748     Al2754   1.921       .  S
O2749      C2756   1.263       .  A
O2750     Al2754   1.779       .  S
O2751      C2752   1.261       .  A
C2752      C3637   1.473       .  S
C2753      C3625   1.477       .  S
C2756      C3646   1.474       .  S
C2757      O2758   1.261       .  A
C2757      C3642   1.471       .  S
C2759      C3615   1.481       .  S
C2759      C2760   1.401       .  A
C2759      C2764   1.407       .  A
C2760      C2761   1.400       .  A
C2760      H2765   1.084       .  S
C2761      C2762   1.400       .  A
C2761      C3624   1.435       .  S
C2762      C2763   1.400       .  A
C2762      H2766   1.085       .  S
C2763      C3619   1.481       .  S
C2763      C2764   1.406       .  A
C2764      H2767   1.083       .  S
C2768      C3612   1.478       .  S
C2768      C2769   1.410       .  A
C2768      C2773   1.402       .  A
C2769      C2770   1.404       .  A
C2769      H2774   1.084       .  S
C2770      C3633   1.472       .  S
C2770      C2771   1.396       .  A
C2771      C2772   1.396       .  A
C2771      H2775   1.085       .  S
C2772      C2773   1.400       .  A
C2772      C3623   1.434       .  S
C2773      H2776   1.084       .  S
C2777      C2778   1.407       .  A
C2777      C2782   1.410       .  A
C2777      C3610   1.454       .  S
C2778      C2779   1.406       .  A
C2778      H2783   1.084       .  S
C2779      C3606   1.487       .  S
C2779      C2780   1.402       .  A
C2780      C2781   1.397       .  A
C2780      H2784   1.083       .  S
C2781      C3602   1.484       .  S
C2781      C2782   1.411       .  A
C2782      H2785   1.083       .  S
C2786      C2791   1.403       .  A
C2786      C3609   1.454       .  S
C2787      C2788   1.412       .  A
C2787      H2792   1.084       .  S
C2788      C3597   1.492       .  S
C2788      C2789   1.406   1_655  A
C2789      H2793   1.083       .  S
C2790      C3626   1.487       .  S
C2790      C2791   1.403       .  A
C2791      H2794   1.084       .  S
C2795      C3591   1.482       .  S
C2795      C2800   1.405       .  A
C2796      C2797   1.404       .  A
C2796      H2801   1.083       .  S
C2797      C3630   1.480       .  S
C2797      C2798   1.399       .  A
C2798      C2799   1.399       .  A
C2798      H2802   1.085       .  S
C2799      C3596   1.438       .  S
C2800      H2803   1.084       .  S
C2804      C2805   1.400       .  A
C2804      C2809   1.398       .  A
C2804      C3595   1.438       .  S
C2805      C2806   1.402       .  A
C2805      H2810   1.084       .  S
C2806      C3587   1.483       .  S
C2806      C2807   1.406       .  A
C2807      C2808   1.409       .  A
C2807      H2811   1.082       .  S
C2808      C3583   1.478       .  S
C2808      C2809   1.401       .  A
C2809      H2812   1.084       .  S
O2813      C2828   1.263       .  A
O2813     Al2821   1.917       .  S
C2814      O2824   1.269       .  A
C2814      O2815   1.262       .  A
C2814      C3588   1.477       .  S
O2815     Al2817   1.882       .  S
O2816      C2818   1.264       .  A
O2816     Al2817   1.932       .  S
Al2817     O2825   1.918       .  S
Al2817     O2827   1.894       .  S
Al2817     O2826   1.776       .  S
C2818      O2831   1.259       .  A
C2818      C3620   1.473       .  S
O2819      C2829   1.262       .  A
O2819     Al2821   1.920       .  S
O2820      C2833   1.272       .  A
O2820     Al2830   1.957       .  S
Al2821     O2834   1.879       .  S
Al2821     O2831   1.890       .  S
Al2821     O2826   1.773       .  S
O2822      C2829   1.258       .  A
O2822     Al2830   1.893       .  S
O2823      C2832   1.261       .  A
O2823     Al2830   1.897       .  S
O2824     Al2830   1.945       .  S
O2825      C2832   1.262       .  A
O2826     Al2830   1.779       .  S
O2827      C2828   1.262       .  A
C2828      C3571   1.466       .  S
C2829      C3605   1.473       .  S
C2832      C3575   1.472       .  S
C2833      O2834   1.255       .  A
C2833      C3579   1.481       .  S
C2835      C2836   1.401       .  A
C2835      C2840   1.400       .  A
C2835      C3569   1.435       .  S
C2836      C2837   1.400       .  A
C2836      H2841   1.084   1_565  S
C2837      C3565   1.478       .  S
C2837      C2838   1.402       .  A
C2838      C2839   1.405       .  A
C2838      H2842   1.083       .  S
C2839      C3572   1.477       .  S
C2839      C2840   1.400       .  A
C2840      H2843   1.084       .  S
C2844      C2845   1.399       .  A
C2844      C2849   1.402       .  A
C2844      C3570   1.439       .  S
C2845      C2846   1.399       .  A
C2845      H2850   1.085       .  S
C2846      C3561   1.480       .  S
C2846      C2847   1.406       .  A
C2847      C2848   1.409       .  A
C2847      H2851   1.083       .  S
C2848      C3557   1.483       .  S
C2848      C2849   1.405       .  A
C2849      H2852   1.084       .  S
O2853      C2868   1.262       .  A
O2853     Al2861   1.904       .  S
C2854      O2864   1.261       .  A
C2854      O2855   1.266       .  A
C2854      C3541   1.479       .  S
O2856      C2858   1.260   1_455  A
Al2857     O2865   1.893       .  S
C2858      O2871   1.264       .  A
C2858      C3538   1.474       .  S
O2859      C2869   1.261       .  A
O2860      C2873   1.262       .  A
Al2861     O2871   1.928       .  S
Al2861     O2866   1.781       .  S
O2862      C2869   1.264       .  A
O2863      C2872   1.265       .  A
O2863     Al2870   1.929       .  S
O2864     Al2870   1.897       .  S
O2867      C2868   1.266       .  A
C2868      C3546   1.481       .  S
C2869      C3562   1.473       .  S
C2872      C3549   1.474       .  S
C2873      O2874   1.264       .  A
C2873      C3553   1.476       .  S
C2875      C2876   1.411       .  A
C2875      C2880   1.412       .  A
C2875      C3535   1.462       .  S
C2876      C2877   1.410       .  A
C2876      H2881   1.084       .  S
C2877      C3532   1.493       .  S
C2877      C2878   1.402       .  A
C2878      C2879   1.397       .  A
C2878      H2882   1.083       .  S
C2879      C3580   1.486       .  S
C2879      C2880   1.413       .  A
C2880      H2883   1.083       .  S
C2884      C2885   1.405       .  A
C2884      C2889   1.414       .  A
C2884      C3536   1.461       .  S
C2885      C2886   1.404       .  A
C2885      H2890   1.084       .  S
C2886      C3542   1.489       .  S
C2886      C2887   1.405       .  A
C2887      C2888   1.407       .  A
C2887      H2891   1.083       .  S
C2888      C3527   1.497       .  S
C2888      C2889   1.415       .  A
C2889      H2892   1.083       .  S
C2893      C2894   1.400       .  A
C2893      C2898   1.400       .  A
C2893      C3526   1.440       .  S
C2894      C2895   1.402       .  A
C2894      H2899   1.084       .  S
C2895      C3576   1.480       .  S
C2895      C2896   1.409       .  A
C2896      C2897   1.406       .  A
C2896      H2900   1.083       .  S
C2897      C3521   1.483       .  S
C2897      C2898   1.402       .  A
C2898      H2901   1.084       .  S
C2902      C3517   1.479       .  S
C2902      C2903   1.401       .  A
C2902      C2907   1.407       .  A
C2903      C2904   1.400       .  A
C2903      H2908   1.084       .  S
C2904      C2905   1.401       .  A
C2904      C3525   1.438       .  S
C2905      C2906   1.401       .  A
C2905      H2909   1.084   1_655  S
C2906      C3537   1.482       .  S
C2906      C2907   1.405       .  A
C2907      H2910   1.083       .  S
O2911      C2926   1.261       .  A
O2911     Al2919   1.898       .  S
C2912      O2922   1.256       .  A
C2912      O2913   1.265       .  A
C2912      C3531   1.478       .  S
O2914      C2916   1.260   1_545  A
Al2915     O2923   1.876       .  S
C2916      O2929   1.264       .  A
C2916      C3566   1.469       .  S
O2917      C2927   1.261       .  A
O2918      C2931   1.260       .  A
Al2919     O2929   1.925       .  S
Al2919     O2924   1.779       .  S
O2920      C2927   1.269       .  A
O2921      C2930   1.271       .  A
O2921     Al2928   1.949       .  S
O2922     Al2928   1.892       .  S
O2925      C2926   1.263       .  A
C2926      C3616   1.472       .  S
C2927      C3522   1.478       .  S
C2930      C3601   1.478       .  S
C2931      O2932   1.262       .  A
C2931      C3584   1.471       .  S
O2933      C2948   1.265       .  A
O2933     Al2941   1.933       .  S
C2934      O2944   1.272       .  A
C2934      O2935   1.253       .  A
C2934      C3493   1.473       .  S
O2935     Al2937   1.864   1_554  S
O2936      C2938   1.266   1_556  A
O2936     Al2937   1.934       .  S
Al2937     O2945   1.938       .  S
Al2937     O2947   1.891       .  S
Al2937     O2946   1.774       .  S
C2938      O2951   1.262       .  A
C2938      C3502   1.472       .  S
O2939      C2949   1.263       .  A
O2939     Al2941   1.934   1_554  S
O2940      C2953   1.271       .  A
O2940     Al2950   1.948       .  S
Al2941     O2954   1.883       .  S
Al2941     O2951   1.891   1_556  S
Al2941     O2946   1.775       .  S
O2942      C2949   1.258       .  A
O2942     Al2950   1.887   1_554  S
O2943      C2952   1.258       .  A
O2943     Al2950   1.895       .  S
O2944     Al2950   1.956   1_554  S
O2945      C2952   1.265       .  A
O2946     Al2950   1.775       .  S
O2947      C2948   1.261       .  A
C2948      C3505   1.472       .  S
C2949      C3497   1.477       .  S
C2952      C3513   1.480       .  S
C2953      O2954   1.262       .  A
C2953      C3509   1.477       .  S
C2955      C3487   1.479       .  S
C2955      C2956   1.404       .  A
C2955      C2960   1.403       .  A
C2956      C2957   1.393       .  A
C2956      H2961   1.084       .  S
C2957      C3494   1.484       .  S
C2957      C2958   1.410       .  A
C2958      C2959   1.408       .  A
C2958      H2962   1.083       .  S
C2959      C2960   1.404       .  A
C2959      C3491   1.448       .  S
C2960      H2963   1.084       .  S
C2964      C3545   1.489       .  S
C2964      C2965   1.408       .  A
C2964      C2969   1.409       .  A
C2965      C2966   1.407       .  A
C2965      H2970   1.084       .  S
C2966      C2967   1.401       .  A
C2966      C3492   1.448       .  S
C2967      C2968   1.402       .  A
C2967      H2971   1.084       .  S
C2968      C3483   1.485       .  S
C2968      C2969   1.407       .  A
C2969      H2972   1.083       .  S
C2973      C2974   1.401       .  A
C2973      C3481   1.441       .  S
C2974      C2975   1.402       .  A
C2974      H2979   1.084       .  S
C2975      C3498   1.485       .  S
C2976      C2977   1.408   1_545  A
C2976      H2980   1.083       .  S
C2977      C3478   1.475       .  S
C2977      C2978   1.399       .  A
C2978      H2981   1.084       .  S
C2982      C2983   1.403       .  A
C2982      C2987   1.401       .  A
C2982      C3482   1.441       .  S
C2983      C2984   1.404       .  A
C2983      H2988   1.084       .  S
C2984      C3550   1.482       .  S
C2984      C2985   1.406       .  A
C2985      C2986   1.404       .  A
C2985      H2989   1.083       .  S
C2986      C3474   1.482       .  S
C2986      C2987   1.401       .  A
C2987      H2990   1.084       .  S
C2991      C3467   1.486       .  S
C2991      C2996   1.407       .  A
C2992      C2993   1.403       .  A
C2992      H2997   1.083   1_655  S
C2993      C3501   1.483       .  S
C2993      C2994   1.401       .  A
C2994      C2995   1.402       .  A
C2994      H2998   1.084       .  S
C2995      C3472   1.445       .  S
C2996      H2999   1.084       .  S
C3000      C3554   1.484       .  S
C3000      C3001   1.404       .  A
C3000      C3005   1.409       .  A
C3001      C3002   1.402       .  A
C3001      H3006   1.084       .  S
C3002      C3003   1.403       .  A
C3002      C3471   1.446       .  S
C3003      C3004   1.405       .  A
C3003      H3007   1.084       .  S
C3004      C3464   1.488       .  S
C3004      C3005   1.407       .  A
C3005      H3008   1.083       .  S
O3009      C3024   1.264       .  A
O3009     Al3017   1.923       .  S
C3010      O3020   1.267       .  A
C3010      O3011   1.261       .  A
C3010      C3463   1.481       .  S
O3011     Al3013   1.893       .  S
O3012      C3014   1.263       .  A
O3012     Al3013   1.927       .  S
Al3013     O3021   1.925       .  S
Al3013     O3023   1.892       .  S
Al3013     O3022   1.779       .  S
C3014      O3027   1.261       .  A
C3014      C3484   1.477       .  S
O3015      C3025   1.264       .  A
O3015     Al3017   1.926       .  S
O3016      C3029   1.269       .  A
O3016     Al3026   1.943       .  S
Al3017     O3030   1.908       .  S
Al3017     O3027   1.901       .  S
Al3017     O3022   1.781       .  S
O3018      C3025   1.260       .  A
O3018     Al3026   1.890       .  S
O3019      C3028   1.262       .  A
O3019     Al3026   1.899       .  S
O3020     Al3026   1.944       .  S
O3021      C3028   1.264       .  A
O3022     Al3026   1.777       .  S
O3023      C3024   1.262       .  A
C3024      C3518   1.471       .  S
C3025      C3473   1.473       .  S
C3028      C3558   1.475       .  S
C3029      O3030   1.262       .  A
C3029      C3528   1.487       .  S
O3031      C3046   1.259       .  A
O3031     Al3039   1.894       .  S
C3032      O3042   1.262       .  A
C3032      O3033   1.265       .  A
C3032      C3451   1.475       .  S
O3033     Al3035   1.930   1_556  S
O3034      C3036   1.260       .  A
O3034     Al3035   1.888   1_556  S
Al3035     O3043   1.894       .  S
Al3035     O3045   1.931       .  S
Al3035     O3044   1.777       .  S
C3036      O3049   1.263       .  A
C3036      C3459   1.471       .  S
O3037      C3047   1.261       .  A
O3037     Al3039   1.896   1_556  S
O3038      C3051   1.262       .  A
O3038     Al3048   1.895       .  S
Al3039     O3052   1.911       .  S
Al3039     O3049   1.922   1_554  S
Al3039     O3044   1.778       .  S
O3040      C3047   1.262       .  A
O3040     Al3048   1.921   1_556  S
O3041      C3050   1.261       .  A
O3041     Al3048   1.915       .  S
O3042     Al3048   1.895   1_556  S
O3043      C3050   1.261       .  A
O3044     Al3048   1.782       .  S
O3045      C3046   1.265       .  A
C3046      C3468   1.477       .  S
C3047      C3455   1.474       .  S
C3050      C3477   1.468       .  S
C3051      O3052   1.263       .  A
C3051      C3488   1.466       .  S
C3053      C3441   1.486       .  S
C3053      C3054   1.407       .  A
C3053      C3058   1.407       .  A
C3054      C3055   1.404       .  A
C3054      H3059   1.084       .  S
C3055      C3056   1.402       .  A
C3055      C3449   1.447       .  S
C3056      C3057   1.403       .  A
C3056      H3060   1.084       .  S
C3057      C3445   1.485       .  S
C3057      C3058   1.407       .  A
C3058      H3061   1.082       .  S
C3062      C3514   1.488       .  S
C3062      C3063   1.409       .  A
C3062      C3067   1.407       .  A
C3063      C3064   1.407       .  A
C3063      H3068   1.084       .  S
C3064      C3065   1.400       .  A
C3064      C3450   1.447       .  S
C3065      C3066   1.400       .  A
C3065      H3069   1.085       .  S
C3066      C3456   1.482       .  S
C3066      C3067   1.406       .  A
C3067      H3070   1.083       .  S
C3071      C3072   1.398       .  A
C3071      C3076   1.398       .  A
C3071      C3439   1.431       .  S
C3072      C3073   1.397       .  A
C3072      H3077   1.085       .  S
C3073      C3436   1.477       .  S
C3073      C3074   1.405       .  A
C3074      C3075   1.407       .  A
C3074      H3078   1.083       .  S
C3075      C3431   1.475       .  S
C3075      C3076   1.399       .  A
C3076      H3079   1.084       .  S
C3080      C3085   1.399       .  A
C3080      C3440   1.431       .  S
C3081      C3082   1.405       .  A
C3081      H3086   1.084       .  S
C3082      C3510   1.484       .  S
C3082      C3083   1.407       .  A
C3083      H3087   1.082       .  S
C3084      C3452   1.482       .  S
C3084      C3085   1.400       .  A
C3085      H3088   1.084       .  S
C3089      C3421   1.477       .  S
C3089      C3090   1.400       .  A
C3089      C3094   1.408       .  A
C3090      C3091   1.398       .  A
C3090      H3095   1.084       .  S
C3091      C3092   1.399       .  A
C3091      C3430   1.435       .  S
C3092      C3093   1.400       .  A
C3092      H3096   1.084       .  S
C3093      C3426   1.481       .  S
C3093      C3094   1.406       .  A
C3094      H3097   1.083       .  S
C3098      C3506   1.478       .  S
C3098      C3103   1.401       .  A
C3099      C3100   1.405       .  A
C3100      C3460   1.479       .  S
C3100      C3101   1.398       .  A
C3101      C3102   1.398       .  A
C3101      H3105   1.085       .  S
C3102      C3429   1.435       .  S
C3103      H3106   1.084       .  S
O3107      C3122   1.260       .  A
O3107     Al3115   1.889       .  S
C3108      O3118   1.262       .  A
C3108      O3109   1.263       .  A
C3108      C3435   1.470       .  S
O3109     Al3111   1.922       .  S
O3110      C3112   1.261       .  A
O3110     Al3111   1.894       .  S
Al3111     O3119   1.896       .  S
Al3111     O3121   1.919       .  S
Al3111     O3120   1.778       .  S
C3112      O3125   1.264       .  A
C3112      C3446   1.475       .  S
O3113      C3123   1.260       .  A
O3113     Al3115   1.890       .  S
O3114      C3127   1.260       .  A
O3114     Al3124   1.891       .  S
Al3115     O3128   1.924       .  S
Al3115     O3125   1.927       .  S
Al3115     O3120   1.777       .  S
O3116      C3123   1.263       .  A
O3116     Al3124   1.928       .  S
O3117      C3126   1.263       .  A
O3117     Al3124   1.919       .  S
O3118     Al3124   1.890       .  S
O3119      C3126   1.261       .  A
O3120     Al3124   1.778       .  S
O3121      C3122   1.263       .  A
C3122      C3418   1.469       .  S
C3123      C3425   1.474       .  S
C3126      C3410   1.470       .  S
C3127      O3128   1.264       .  A
C3127      C3413   1.470       .  S
C3129      C3400   1.477       .  S
C3129      C3130   1.401       .  A
C3129      C3134   1.406       .  A
C3130      C3131   1.400       .  A
C3130      H3135   1.084       .  S
C3131      C3132   1.398       .  A
C3131      C3407   1.432       .  S
C3132      C3133   1.397       .  A
C3132      H3136   1.085       .  S
C3133      C3403   1.476       .  S
C3133      C3134   1.404       .  A
C3134      H3137   1.083       .  S
C3138      C3417   1.477       .  S
C3138      C3139   1.400       .  A
C3138      C3143   1.407       .  A
C3139      C3140   1.398       .  A
C3139      H3144   1.084       .  S
C3140      C3141   1.399       .  A
C3141      C3142   1.400       .  A
C3141      H3145   1.085       .  S
C3142      C3395   1.481       .  S
C3142      C3143   1.405       .  A
C3143      H3146   1.082       .  S
O3147      C3162   1.265       .  A
C3148      O3158   1.261       .  A
C3148      O3149   1.260       .  A
C3148      C3404   1.468       .  S
O3150      C3152   1.265       .  A
O3150     Al3151   1.933       .  S
Al3151     O3161   1.900       .  S
C3152      O3165   1.260       .  A
C3152      C3376   1.475       .  S
O3153      C3163   1.265       .  A
O3154      C3167   1.263       .  A
O3154     Al3164   1.920       .  S
O3156      C3163   1.261       .  A
O3156     Al3164   1.894       .  S
O3157      C3166   1.262       .  A
O3159      C3166   1.266       .  A
O3161      C3162   1.261       .  A
C3162      C3387   1.477       .  S
C3163      C3380   1.477       .  S
C3166      C3384   1.477       .  S
C3167      O3168   1.261   1_655  A
C3167      C3392   1.471       .  S
C3169      C3170   1.400       .  A
C3169      C3174   1.399       .  A
C3169      C3373   1.435       .  S
C3170      C3171   1.401       .  A
C3170      H3175   1.084       .  S
C3171      C3409   1.478       .  S
C3171      C3172   1.407       .  A
C3172      C3173   1.405       .  A
C3172      H3176   1.083       .  S
C3173      C3369   1.480       .  S
C3173      C3174   1.399       .  A
C3174      H3177   1.084       .  S
C3178      C3365   1.477       .  S
C3178      C3179   1.400       .  A
C3178      C3183   1.409       .  A
C3179      C3180   1.398       .  A
C3179      H3184   1.085       .  S
C3180      C3181   1.400       .  A
C3180      C3374   1.436       .  S
C3181      C3182   1.401       .  A
C3181      H3185   1.084       .  S
C3182      C3379   1.484       .  S
C3182      C3183   1.407       .  A
C3183      H3186   1.083       .  S
C3187      C3414   1.478       .  S
C3187      C3188   1.405       .  A
C3187      C3192   1.403       .  A
C3188      C3189   1.403       .  A
C3188      H3193   1.083       .  S
C3189      C3359   1.479       .  S
C3189      C3190   1.399       .  A
C3190      C3191   1.400       .  A
C3190      H3194   1.084   1_565  S
C3191      C3192   1.402       .  A
C3191      C3363   1.437       .  S
C3192      H3195   1.084       .  S
C3196      C3355   1.482       .  S
C3196      C3197   1.408       .  A
C3196      C3201   1.403       .  A
C3197      C3198   1.406       .  A
C3197      H3202   1.083       .  S
C3198      C3375   1.483       .  S
C3198      C3199   1.401       .  A
C3199      C3200   1.400       .  A
C3199      H3203   1.085       .  S
C3200      C3201   1.401       .  A
C3200      C3364   1.440       .  S
C3201      H3204   1.084       .  S
O3205      C3220   1.272       .  A
C3206      O3207   1.262   1_565  A
C3206      C3360   1.468       .  S
O3208      C3210   1.262       .  A
O3208     Al3209   1.930       .  S
Al3209     O3217   1.929       .  S
Al3209     O3219   1.883       .  S
C3210      O3223   1.257       .  A
C3210      C3396   1.473       .  S
O3211      C3221   1.263       .  A
O3212      C3225   1.263       .  A
O3212     Al3222   1.920       .  S
O3214      C3221   1.261       .  A
O3214     Al3222   1.892       .  S
O3215      C3224   1.261       .  A
O3216     Al3222   1.923   1_455  S
O3218     Al3222   1.777       .  S
O3219      C3220   1.261       .  A
C3220      C3442   1.479       .  S
C3221      C3370   1.472       .  S
C3224      C3422   1.470       .  S
C3225      O3226   1.261   1_565  A
C3225      C3432   1.469       .  S
O3227      C3242   1.261       .  A
O3227     Al3235   1.896       .  S
C3228      O3238   1.260       .  A
C3228      O3229   1.264       .  A
C3228      C3351   1.472       .  S
O3229     Al3231   1.925       .  S
O3230      C3232   1.260       .  A
O3230     Al3231   1.898       .  S
Al3231     O3239   1.898       .  S
Al3231     O3241   1.916       .  S
Al3231     O3240   1.779       .  S
C3232      O3245   1.262       .  A
C3232      C3348   1.475       .  S
O3233      C3243   1.262       .  A
O3233     Al3235   1.897       .  S
O3234      C3247   1.262       .  A
O3234     Al3244   1.898       .  S
Al3235     O3248   1.917       .  S
Al3235     O3245   1.922       .  S
Al3235     O3240   1.782       .  S
O3236      C3243   1.267       .  A
O3236     Al3244   1.939       .  S
O3237      C3246   1.267       .  A
O3237     Al3244   1.940       .  S
O3238     Al3244   1.889       .  S
O3239      C3246   1.259       .  A
O3240     Al3244   1.778       .  S
O3241      C3242   1.264       .  A
C3242      C3592   1.469       .  S
C3243      C3343   1.480       .  S
C3246      C3598   1.482       .  S
C3247      O3248   1.262       .  A
C3247      C3611   1.471       .  S
C3249      C3645   1.482       .  S
C3249      C3250   1.409       .  A
C3249      C3254   1.403       .  A
C3250      C3251   1.408       .  A
C3250      H3255   1.083       .  S
C3251      C3344   1.487       .  S
C3251      C3252   1.404       .  A
C3252      C3253   1.402       .  A
C3252      H3256   1.084       .  S
C3253      C3254   1.400       .  A
C3253      C3341   1.443       .  S
C3254      H3257   1.084       .  S
C3258      C3388   1.486       .  S
C3258      C3259   1.406       .  A
C3258      C3263   1.408       .  A
C3259      C3260   1.405       .  A
C3259      H3264   1.084       .  S
C3260      C3261   1.400       .  A
C3260      C3342   1.443       .  S
C3261      C3262   1.400       .  A
C3261      H3265   1.085       .  S
C3262      C3337   1.481       .  S
C3262      C3263   1.405       .  A
C3263      H3266   1.083       .  S
C3267      C3268   1.400       .  A
C3267      C3335   1.435       .  S
C3268      C3269   1.400       .  A
C3268      H3273   1.084       .  S
C3269      C3352   1.481       .  S
C3270      C3271   1.406       .  A
C3270      H3274   1.083       .  S
C3271      C3641   1.479       .  S
C3271      C3272   1.402       .  A
C3272      H3275   1.084       .  S
C3276      C3277   1.399       .  A
C3276      C3281   1.398       .  A
C3276      C3336   1.435       .  S
C3277      C3278   1.401       .  A
C3277      H3282   1.084       .  S
C3278      C3391   1.478       .  S
C3278      C3279   1.409       .  A
C3279      C3280   1.407       .  A
C3279      H3283   1.083       .  S
C3280      C3331   1.481       .  S
C3280      C3281   1.400       .  A
C3281      H3284   1.084       .  S
C3285      C3638   1.481       .  S
C3285      C3290   1.402       .  A
C3286      C3287   1.407       .  A
C3286      H3291   1.083       .  S
C3287      C3347   1.484       .  S
C3287      C3288   1.402       .  A
C3288      C3289   1.401       .  A
C3288      H3292   1.084       .  S
C3289      C3329   1.446       .  S
C3290      H3293   1.084       .  S
C3294      C3383   1.485       .  S
C3294      C3295   1.406       .  A
C3294      C3299   1.407       .  A
C3295      C3296   1.405       .  A
C3295      H3300   1.084       .  S
C3296      C3297   1.401       .  A
C3296      C3330   1.446       .  S
C3297      C3298   1.402       .  A
C3297      H3301   1.084       .  S
C3298      C3325   1.483       .  S
C3298      C3299   1.405       .  A
C3299      H3302   1.083       .  S
O3303      C3318   1.261       .  A
O3303     Al3311   1.895       .  S
C3304      O3314   1.262       .  A
C3304      O3305   1.264       .  A
C3304      C3332   1.475       .  S
O3305     Al3307   1.928       .  S
O3306      C3308   1.261       .  A
O3306     Al3307   1.891       .  S
Al3307     O3315   1.893       .  S
Al3307     O3317   1.926       .  S
Al3307     O3316   1.777       .  S
C3308      O3321   1.264       .  A
C3308      C3338   1.473       .  S
O3309      C3319   1.261       .  A
O3309     Al3311   1.893       .  S
O3310      C3323   1.261       .  A
O3310     Al3320   1.892       .  S
Al3311     O3324   1.923       .  S
Al3311     O3321   1.926       .  S
Al3311     O3316   1.778       .  S
O3312      C3319   1.264       .  A
O3312     Al3320   1.928       .  S
O3313      C3322   1.263       .  A
O3313     Al3320   1.922       .  S
O3314     Al3320   1.892       .  S
O3315      C3322   1.261       .  A
O3316     Al3320   1.778       .  S
O3317      C3318   1.264       .  A
C3318      C3356   1.474       .  S
C3319      C3326   1.475       .  S
C3322      C3366   1.471       .  S
C3323      O3324   1.264       .  A
C3323      C3399   1.470       .  S
C3325      C3326   1.345       .  D
C3325      H3327   1.087       .  S
C3326      H3328   1.086       .  S
C3329      C3330   1.210       .  T
C3331      C3332   1.343       .  D
C3331      H3333   1.087       .  S
C3332      H3334   1.086       .  S
C3335      C3336   1.203       .  T
C3337      C3338   1.344       .  D
C3337      H3339   1.087       .  S
C3338      H3340   1.086       .  S
C3341      C3342   1.208       .  T
C3343      C3344   1.347       .  D
C3343      H3345   1.086       .  S
C3344      H3346   1.087       .  S
C3347      C3348   1.344       .  D
C3347      H3349   1.087       .  S
C3348      H3350   1.086       .  S
C3351      C3352   1.345       .  D
C3351      H3353   1.086       .  S
C3352      H3354   1.087       .  S
C3355      C3356   1.344       .  D
C3355      H3357   1.087       .  S
C3356      H3358   1.086       .  S
C3359      C3360   1.343       .  D
C3359      H3361   1.087   1_565  S
C3360      H3362   1.085       .  S
C3365      C3366   1.341       .  D
C3365      H3367   1.087       .  S
C3366      H3368   1.087       .  S
C3369      C3370   1.343       .  D
C3369      H3371   1.087       .  S
C3370      H3372   1.086       .  S
C3373      C3374   1.203       .  T
C3375      C3376   1.345       .  D
C3375      H3377   1.087       .  S
C3376      H3378   1.086       .  S
C3379      C3380   1.345       .  D
C3379      H3381   1.087       .  S
C3380      H3382   1.086       .  S
C3383      C3384   1.347       .  D
C3383      H3385   1.086       .  S
C3384      H3386   1.086       .  S
C3387      C3388   1.346       .  D
C3387      H3389   1.086       .  S
C3388      H3390   1.086       .  S
C3391      C3392   1.341       .  D
C3391      H3393   1.087   1_655  S
C3392      H3394   1.087       .  S
C3395      C3396   1.345       .  D
C3395      H3397   1.087       .  S
C3396      H3398   1.085       .  S
C3399      C3400   1.343       .  D
C3399      H3401   1.087       .  S
C3400      H3402   1.087       .  S
C3403      C3404   1.341       .  D
C3403      H3405   1.087   1_655  S
C3404      H3406   1.086       .  S
C3407      C3408   1.202       .  T
C3409      C3410   1.342       .  D
C3409      H3411   1.087       .  S
C3410      H3412   1.087       .  S
C3413      C3414   1.344       .  D
C3413      H3415   1.087       .  S
C3414      H3416   1.086       .  S
C3417      C3418   1.342       .  D
C3417      H3419   1.087       .  S
C3418      H3420   1.086       .  S
C3421      C3422   1.342       .  D
C3421      H3423   1.087       .  S
C3422      H3424   1.087       .  S
C3425      C3426   1.344       .  D
C3425      H3427   1.086       .  S
C3426      H3428   1.087       .  S
C3429      C3430   1.203       .  T
C3431      C3432   1.341       .  D
C3431      H3433   1.087   1_565  S
C3432      H3434   1.087       .  S
C3435      C3436   1.341       .  D
C3435      H3437   1.086       .  S
C3436      H3438   1.087       .  S
C3439      C3440   1.201       .  T
C3441      C3442   1.350       .  D
C3441      H3443   1.087       .  S
C3442      H3444   1.086       .  S
C3445      C3446   1.345       .  D
C3445      H3447   1.087       .  S
C3446      H3448   1.086       .  S
C3449      C3450   1.210       .  T
C3451      C3452   1.343       .  D
C3451      H3453   1.086       .  S
C3452      H3454   1.087       .  S
C3455      C3456   1.343       .  D
C3455      H3457   1.086       .  S
C3456      H3458   1.087       .  S
C3459      C3460   1.343       .  D
C3459      H3461   1.086       .  S
C3460      H3462   1.087       .  S
C3463      C3464   1.349       .  D
C3463      H3465   1.086       .  S
C3464      H3466   1.087       .  S
C3467      C3468   1.348       .  D
C3467      H3469   1.086       .  S
C3468      H3470   1.086       .  S
C3471      C3472   1.209       .  T
C3473      C3474   1.345       .  D
C3473      H3475   1.086       .  S
C3474      H3476   1.087       .  S
C3477      C3478   1.340       .  D
C3477      H3479   1.087       .  S
C3478      H3480   1.087       .  S
C3481      C3482   1.207       .  T
C3483      C3484   1.345       .  D
C3483      H3485   1.087       .  S
C3484      H3486   1.086       .  S
C3487      C3488   1.343       .  D
C3487      H3489   1.086       .  S
C3488      H3490   1.087       .  S
C3491      C3492   1.211       .  T
C3493      C3494   1.336       .  D
C3493      H3495   1.087       .  S
C3494      H3496   1.087       .  S
C3497      C3498   1.347       .  D
C3497      H3499   1.085       .  S
C3498      H3500   1.087       .  S
C3501      C3502   1.345       .  D
C3501      H3503   1.087       .  S
C3502      H3504   1.086       .  S
C3505      C3506   1.343       .  D
C3505      H3507   1.086       .  S
C3506      H3508   1.087       .  S
C3509      C3510   1.348       .  D
C3509      H3511   1.086       .  S
C3510      H3512   1.087       .  S
C3513      C3514   1.350       .  D
C3513      H3515   1.086       .  S
C3514      H3516   1.086       .  S
C3517      C3518   1.343       .  D
C3517      H3519   1.087       .  S
C3518      H3520   1.086       .  S
C3521      C3522   1.347       .  D
C3521      H3523   1.087       .  S
C3522      H3524   1.085       .  S
C3527      C3528   1.354       .  D
C3527      H3529   1.086       .  S
C3528      H3530   1.086       .  S
C3531      C3532   1.353       .  D
C3531      H3533   1.085       .  S
C3532      H3534   1.086       .  S
C3535      C3536   1.219       .  T
C3537      C3538   1.345       .  D
C3537      H3539   1.087   1_655  S
C3538      H3540   1.086       .  S
C3541      C3542   1.348       .  D
C3541      H3543   1.086       .  S
C3542      H3544   1.087       .  S
C3545      C3546   1.348       .  D
C3545      H3547   1.086       .  S
C3546      H3548   1.086       .  S
C3549      C3550   1.346       .  D
C3549      H3551   1.087       .  S
C3550      H3552   1.087       .  S
C3553      C3554   1.344       .  D
C3553      H3555   1.086       .  S
C3554      H3556   1.087       .  S
C3557      C3558   1.344       .  D
C3557      H3559   1.086       .  S
C3558      H3560   1.087       .  S
C3561      C3562   1.343       .  D
C3561      H3563   1.087       .  S
C3562      H3564   1.086       .  S
C3565      C3566   1.344       .  D
C3565      H3567   1.087   1_565  S
C3566      H3568   1.086       .  S
C3571      C3572   1.342       .  D
C3571      H3573   1.087       .  S
C3572      H3574   1.086       .  S
C3575      C3576   1.342       .  D
C3575      H3577   1.087       .  S
C3576      H3578   1.087       .  S
C3579      C3580   1.339       .  D
C3579      H3581   1.087       .  S
C3580      H3582   1.087       .  S
C3583      C3584   1.342       .  D
C3583      H3585   1.087       .  S
C3584      H3586   1.086       .  S
C3587      C3588   1.347       .  D
C3587      H3589   1.087       .  S
C3588      H3590   1.085       .  S
C3591      C3592   1.345       .  D
C3591      H3593   1.086       .  S
C3592      H3594   1.087       .  S
C3595      C3596   1.205       .  T
C3597      C3598   1.352       .  D
C3597      H3599   1.086       .  S
C3598      H3600   1.086       .  S
C3601      C3602   1.338       .  D
C3601      H3603   1.087       .  S
C3602      H3604   1.088       .  S
C3605      C3606   1.349       .  D
C3605      H3607   1.085       .  S
C3606      H3608   1.087       .  S
C3609      C3610   1.214       .  T
C3611      C3612   1.341       .  D
C3611      H3613   1.087       .  S
C3612      H3614   1.087       .  S
C3615      C3616   1.343       .  D
C3615      H3617   1.087       .  S
C3616      H3618   1.086       .  S
C3619      C3620   1.344       .  D
C3619      H3621   1.087       .  S
C3620      H3622   1.086       .  S
C3623      C3624   1.203       .  T
C3625      C3626   1.347       .  D
C3625      H3627   1.086       .  S
C3626      H3628   1.087       .  S
C3629      C3630   1.344       .  D
C3629      H3631   1.086       .  S
C3630      H3632   1.087       .  S
C3633      C3634   1.340       .  D
C3633      H3635   1.087       .  S
C3634      H3636   1.087       .  S
C3637      C3638   1.343       .  D
C3637      H3639   1.086       .  S
C3638      H3640   1.087       .  S
C3641      C3642   1.344       .  D
C3641      H3643   1.087       .  S
C3642      H3644   1.087       .  S
C3645      C3646   1.343       .  D
C3645      H3647   1.087       .  S
C3646      H3648   1.087       .  S
