geometry optimzed in LAMMPS
_audit_creation_date              2020-12-01 
_audit_creation_method            'lammps2cif' 
_symmetry_space_group_name_H-M    'P1' 
_symmetry_Int_Tables_number       1 
_symmetry_cell_setting            triclinic 
loop_ 
_symmetry_equiv_pos_as_xyz 
  x,y,z 
_cell_length_a                    32.26577197 
_cell_length_b                    32.05237628308142 
_cell_length_c                    25.820995188029976 
_cell_angle_alpha                 89.73758550411341 
_cell_angle_beta                  90.1660375787463 
_cell_angle_gamma                 116.61505939238819 
loop_ 
_atom_site_label 
_atom_site_type_symbol 
_atom_site_fract_x 
_atom_site_fract_y 
_atom_site_fract_z 
_atom_site_charge 
O1          O  0.42898011  0.25697961  0.42494003    -0.80400
O2          O  0.29568592  0.12912575  0.26442524    -0.65100
O3          O  0.34128051  0.20945147  0.38110254    -1.11700
C4          C  0.28298113  0.07034743  0.47398661     1.06500
O5          O  0.23239895  0.10039983  0.30907609    -0.78300
O6          O  0.23080954  0.13882165  0.40445367    -0.65800
Ni7        Ni  0.38890087  0.27016935  0.37771908     1.34900
C8          C  0.25175861  0.16484297  0.44288865     0.85300
O9          O  0.32704135  0.22444177  0.27606155    -0.78800
O10         O  0.34911168  0.28483236  0.33087516    -0.89100
C11         C  0.25776132  0.09387009  0.27573318     0.84800
O12         O  0.41993683  0.25979509  0.32058238    -0.67300
O13         O  0.24864640  0.06867735  0.44764514    -0.86600
C14         C  0.41728070  0.22399998  0.29685244     0.85700
C15         C  0.32617819  0.26200612  0.29105725     1.07200
H16         H  0.32112148  0.10359445  0.35972585     0.39000
O17         O  0.30641398  0.12277663  0.36939989    -1.09200
O18         O  0.28782452  0.16439245  0.46193939    -0.65900
Ni19       Ni  0.33804322  0.15963277  0.42613804     1.26300
O20         O  0.38272850  0.18329959  0.30243442    -0.66100
O21         O  0.32480555  0.10343239  0.46818946    -0.78400
C22         C  0.41972709  0.23225005  0.46641775     0.85000
O23         O  0.37874109  0.20095577  0.47712712    -0.65600
Ni24       Ni  0.24109027  0.08674069  0.37898494     1.27400
Ni25       Ni  0.31959599  0.17307867  0.32068487     1.26100
H26         H  0.31602717  0.21625380  0.38953489     0.39600
C27         C  0.99798042  0.44216497  0.45124113     0.03700
C28         C  0.03801226  0.48478314  0.44826972    -0.12500
C29         C  0.03316407  0.02739290  0.47792432     0.01200
C30         C  0.48895531  0.02220906  0.96069835    -0.11000
C31         C  0.45183502  0.47842677  0.97524765     0.03600
C32         C  0.45380420  0.43548854  0.97918075    -0.10400
H33         H  0.07172650  0.48574473  0.45409391     0.09200
H34         H  0.48651531  0.05474396  0.95682667     0.06800
H35         H  0.42211715  0.40328435  0.98288902     0.06600
N36         N  0.28107308  0.99135238  0.00983122    -0.02900
C37         C  0.24422577  0.45313520  0.02044943    -0.00400
C38         C  0.21054832  0.46554570  0.03580575    -0.23200
C39         C  0.23391228  0.01805274  0.04220523    -0.23400
C40         C  0.26869385  0.03199519  0.51341922    -0.00500
H41         H  0.17507320  0.44272847  0.04603099     0.13300
H42         H  0.20842727  0.03996511  0.54296755     0.13400
N43         N  0.19965645  0.19514809  0.48608513    -0.02900
C44         C  0.21137990  0.22852188  0.02155133    -0.00400
C45         C  0.25790403  0.25953316  0.02083020    -0.23200
C46         C  0.27132132  0.24828092  0.46712194    -0.23400
C47         C  0.23965401  0.20165300  0.46290451    -0.00500
H48         H  0.27415498  0.29341941  0.03907774     0.13300
H49         H  0.30698454  0.26437931  0.45420612     0.13400
N50         N  0.99907812  0.27276220  0.51791201    -0.02900
C51         C  0.45777403  0.23697418  0.50251261    -0.00400
C52         C  0.94893195  0.20728391  0.55916675    -0.23200
C53         C  0.02306273  0.20524465  0.99140851    -0.23400
C54         C  0.04125838  0.25147876  0.00770168    -0.00500
H55         H  0.41885581  0.17380472  0.54963576     0.13300
H56         H  0.03980685  0.18259930  0.99394852     0.13400
O57         O  0.06621208  0.23791926  0.17480879    -0.80400
O58         O  0.20193680  0.37021197  0.01708711    -0.65100
O59         O  0.15480113  0.29026871  0.13467562    -1.11700
C60         C  0.19778878  0.42861952  0.22232763     1.06500
O61         O  0.26244504  0.39951532  0.06654158    -0.78300
O62         O  0.26198895  0.36758629  0.16526804    -0.65800
Ni63       Ni  0.11098966  0.22796376  0.13202217     1.34900
C64         C  0.23981835  0.34165952  0.20322958     0.85300
O65         O  0.17448387  0.27621075  0.03147198    -0.78800
O66         O  0.15465610  0.21677516  0.08808209    -0.89100
C67         C  0.23962690  0.40537846  0.02955156     0.84800
O68         O  0.08046056  0.23485986  0.07253859    -0.67300
O69         O  0.23471197  0.43483609  0.19806073    -0.86600
C70         C  0.08031822  0.26832376  0.04605990     0.85700
C71         C  0.17657879  0.23952896  0.04754431     1.07200
H72         H  0.16817648  0.39330959  0.10769997     0.39000
O73         O  0.18424864  0.37606908  0.11988063    -1.09200
O74         O  0.20166850  0.34002167  0.21758268    -0.65900
Ni75       Ni  0.15155463  0.33877884  0.17597393     1.26300
O76         O  0.11267726  0.31065709  0.05013343    -0.66300
O77         O  0.15786671  0.39339733  0.21464333    -0.78400
C78         C  0.07135308  0.26524204  0.21301862     0.85000
O79         O  0.11102632  0.29689195  0.22644970    -0.65600
Ni80       Ni  0.24848869  0.41549954  0.13300588     1.27400
Ni81       Ni  0.17663163  0.32625113  0.07355138     1.26100
H82         H  0.18117074  0.28631239  0.14607301     0.39600
C83         C  0.50023823  0.05209916  0.28288054     0.03700
C84         C  0.04187606  0.05799837  0.26439252    -0.12500
C85         C  0.04451510  0.01576456  0.25811002     0.01200
C86         C  0.50099179  0.47080581  0.18200851    -0.11000
C87         C  0.45825847  0.47200500  0.18068875     0.03600
C88         C  0.46149056  0.00844324  0.28655448    -0.10400
H89         H  0.07326278  0.09063430  0.26672539     0.09200
H90         H  0.50204620  0.43749637  0.18437087     0.06800
H91         H  0.42748723  0.00620215  0.29311123     0.06600
N92         N  0.20636048  0.50546676  0.25290313    -0.02900
C93         C  0.25435312  0.04604521  0.26909053    -0.00400
C94         C  0.28899704  0.03481171  0.28450488    -0.23200
C95         C  0.24220379  0.47117179  0.29695974    -0.23400
C96         C  0.20619858  0.46365368  0.26307415    -0.00500
H97         H  0.32401448  0.05851193  0.29567472     0.13300
H98         H  0.25423595  0.44585785  0.30824336     0.13400
N99         N  0.48996493  0.22414645  0.25726851    -0.02900
C100        C  0.03017259  0.26695933  0.23627802    -0.00400
C101        C  0.50979787  0.28846279  0.20832500    -0.23200
C102        C  0.46591948  0.27518967  0.22685108    -0.23400
C103        C  0.45388696  0.23537934  0.25680158    -0.00500
H104        H  0.05066489  0.34159421  0.22283464     0.13300
H105        H  0.44576375  0.29431342  0.22157616     0.13400
N106        N  0.29592899  0.31119549  0.23882640    -0.02900
C107        C  0.29026402  0.27319924  0.26728376    -0.00400
C108        C  0.24356103  0.24433659  0.27382771    -0.23200
C109        C  0.22006383  0.26596616  0.25013943    -0.23400
C110        C  0.25296385  0.30735101  0.22899762    -0.00500
H111        H  0.22819704  0.21166111  0.29498058     0.13300
H112        H  0.18279580  0.25309643  0.24911105     0.13400
C113        C  0.00252171  0.12817112  0.31086108    -0.25800
C114        C  0.49392542  0.09509890  0.28027212    -0.13900
C115        C  0.46329661  0.09967769  0.24364295     0.36800
C116        C  0.45966798  0.14131449  0.24052074    -0.25200
C117        C  0.48769342  0.17977693  0.27065072    -0.14500
C118        C  0.99925879  0.17036560  0.30993160     0.37900
N119        N  0.01126359  0.19956157  0.35475311    -0.88700
H120        H  0.01260818  0.11686678  0.34626679     0.19000
H121        H  0.43728061  0.14501388  0.21139268     0.19000
N122        N  0.43903174  0.06480387  0.20542080    -0.87800
H123        H  0.04541412  0.20763595  0.36493415     0.36300
H124        H  0.98970169  0.18042125  0.38515381     0.41400
H125        H  0.41290648  0.03545830  0.22285327     0.41100
H126        H  0.46247799  0.05563083  0.18675991     0.35900
C127        C  0.11994562  0.03438488  0.21630908    -0.25800
C128        C  0.08906839  0.01385809  0.25731448    -0.13900
C129        C  0.09181596  0.50733547  0.25646533     0.36800
C130        C  0.13282611  0.50599456  0.27176192    -0.25200
C131        C  0.16640553  0.50994381  0.23526003    -0.14500
C132        C  0.16070989  0.02924189  0.21237615     0.37900
N133        N  0.19122428  0.05074977  0.16939654    -0.88700
H134        H  0.11202386  0.05406048  0.18710072     0.19000
H135        H  0.13831572  0.50098840  0.31227641     0.19000
N136        N  0.05710270  0.50131309  0.29422184    -0.87800
H137        H  0.17271235  0.03608891  0.13549470     0.36300
H138        H  0.21914664  0.04261933  0.16967645     0.41400
H139        H  0.07213659  0.52717373  0.32230947     0.41100
H140        H  0.04707004  0.46894569  0.31227488     0.35900
C141        C  0.39219452  0.39647948  0.15799092    -0.25800
C142        C  0.41700077  0.42980973  0.19534731    -0.13900
C143        C  0.40368796  0.42231724  0.24786400     0.36800
C144        C  0.36384598  0.38223644  0.26169505    -0.25200
C145        C  0.33857625  0.34933888  0.22428155    -0.14500
C146        C  0.35340630  0.35532555  0.17237799     0.37900
N147        N  0.32981210  0.31900572  0.13523557    -0.88700
H148        H  0.40302019  0.40277643  0.11792856     0.19000
H149        H  0.35204113  0.37651978  0.30147404     0.19000
N150        N  0.43058057  0.45578120  0.28653944    -0.87800
H151        H  0.34558557  0.32870208  0.09893717     0.36300
H152        H  0.29605742  0.31494116  0.13083127     0.41400
H153        H  0.46327315  0.45648345  0.28797075     0.41100
H154        H  0.41604157  0.44498072  0.32320208     0.35900
C155        C  0.08526332  0.10480638  0.44255973    -0.25800
C156        C  0.07549040  0.07132188  0.48168222    -0.13900
C157        C  0.10339176  0.07751634  0.02257611     0.36800
C158        C  0.14400991  0.11895829  0.02789542    -0.25200
C159        C  0.15745838  0.15369893  0.48485587    -0.14500
C160        C  0.12597495  0.14621650  0.44412812     0.37900
N161        N  0.13500095  0.18019928  0.40400154    -0.88700
H162        H  0.06147023  0.09841397  0.41048126     0.19000
H163        H  0.16282504  0.12715077  0.06424120     0.19000
N164        N  0.08594302  0.04548145  0.06536001    -0.87800
H165        H  0.16629304  0.18651446  0.38609546     0.36300
H166        H  0.13874680  0.21123212  0.42101806     0.41400
H167        H  0.05436928  0.04436435  0.07665348     0.41100
H168        H  0.10826263  0.05772516  0.09707999     0.35900
C169        C  0.02222678  0.37861252  0.43709042    -0.25800
C170        C  0.00196677  0.40009805  0.46874626    -0.13900
C171        C  0.48461394  0.37748834  0.51076928     0.36800
C172        C  0.49239794  0.33988070  0.52609405    -0.25200
C173        C  0.00720557  0.31901724  0.50305963    -0.14500
C174        C  0.02426737  0.33745764  0.45363909     0.37900
N175        N  0.04261421  0.31389452  0.42046803    -0.88700
H176        H  0.03494383  0.39304089  0.39906837     0.19000
H177        H  0.48134843  0.32490330  0.56429711     0.19000
N178        N  0.46554170  0.39791377  0.54701614    -0.87800
H179        H  0.05348505  0.33180485  0.38530752     0.36300
H180        H  0.01568713  0.28114655  0.41165699     0.41400
H181        H  0.47669912  0.37966942  0.10611080     0.41100
H182        H  0.42607025  0.34809962  0.07499375     0.35900
C183        C  0.33666474  0.99581716  0.45076460    -0.25800
C184        C  0.32381875  0.99013303  0.99811432    -0.13900
C185        C  0.36585351  0.51735156  0.02729496     0.36800
C186        C  0.40587543  0.51159237  0.02014858    -0.25200
C187        C  0.40808735  0.48202606  0.98141548    -0.14500
C188        C  0.37754264  0.99153378  0.44276918     0.37900
N189        N  0.39672763  0.99757909  0.39190325    -0.88700
H190        H  0.31846883  0.00127001  0.41810043     0.19000
H191        H  0.43519843  0.52959688  0.04566218     0.19000
N192        N  0.36380131  0.54626907  0.06831723    -0.87800
H193        H  0.40444713  0.03136028  0.37948229     0.36300
H194        H  0.37099160  0.97434131  0.36734725     0.41400
H195        H  0.38992664  0.58011541  0.06210721     0.41100
H196        H  0.37075953  0.53392603  0.10320929     0.35900
O197        O  0.43152857  0.25514071  0.92230476    -0.80400
O198        O  0.29587231  0.12315947  0.76861218    -0.65100
O199        O  0.34337055  0.20515897  0.88309930    -1.11700
C200        C  0.28967981  0.06871446  0.97818744     1.06500
O201        O  0.23389121  0.09620329  0.81568683    -0.78300
O202        O  0.23547916  0.13593213  0.91241354    -0.65800
Ni203      Ni  0.38907790  0.26650375  0.87747577     1.34900
C204        C  0.25755828  0.16077763  0.95119147     0.85300
O205        O  0.32691564  0.21754558  0.77776152    -0.78800
O206        O  0.34731572  0.27882772  0.83086038    -0.89100
C207        C  0.25797827  0.08869074  0.78139216     0.84800
O208        O  0.41891576  0.25568852  0.81996134    -0.67300
O209        O  0.25454637  0.06688310  0.95344408    -0.86600
C210        C  0.41694715  0.22026191  0.79609939     0.85700
C211        C  0.32542663  0.25512972  0.79091164     1.07200
H212        H  0.32350498  0.09897455  0.86292780     0.39000
O213        O  0.30937639  0.11853765  0.87301542    -1.09200
O214        O  0.29453453  0.16046056  0.96713598    -0.65900
Ni215      Ni  0.34302117  0.15621717  0.92795258     1.26300
O216        O  0.38383800  0.17888089  0.80322414    -0.66100
O217        O  0.33157705  0.10090452  0.97019180    -0.78400
C218        C  0.42572022  0.22848871  0.96154411     0.85000
O219        O  0.38576934  0.19828208  0.97663412    -0.65600
Ni220      Ni  0.24453776  0.08351933  0.88536844     1.27400
Ni221      Ni  0.32086559  0.16779887  0.82355447     1.26100
H222        H  0.31781351  0.21114151  0.89271560     0.39600
C223        C  0.99620971  0.43684688  0.97211438     0.03700
C224        C  0.03620797  0.47915870  0.96600772    -0.12500
C225        C  0.03733400  0.02378588  0.96884274     0.01200
C226        C  0.48467181  0.02206939  0.47697257    -0.11000
C227        C  0.44494351  0.48089796  0.44794157     0.03600
C228        C  0.44719428  0.43796707  0.44935720    -0.10400
H229        H  0.07012086  0.48006487  0.96924610     0.09200
H230        H  0.48257386  0.05487114  0.47479725     0.06800
H231        H  0.41634658  0.40601745  0.45786570     0.06600
N232        N  0.27542359  0.99307343  0.50838184    -0.02900
C233        C  0.24172161  0.45807961  0.52597269    -0.00400
C234        C  0.21145129  0.47325247  0.54627323    -0.23200
C235        C  0.22590160  0.01831121  0.53724274    -0.23400
C236        C  0.27625262  0.03093460  0.01757233    -0.00500
H237        H  0.17757173  0.45229820  0.56257509     0.13300
H238        H  0.21768615  0.04061033  0.04950142     0.13400
N239        N  0.20408503  0.19032669  0.99318707    -0.02900
C240        C  0.20514591  0.23678733  0.50440614    -0.00400
C241        C  0.24921271  0.27061135  0.49245823    -0.23200
C242        C  0.27991414  0.23868390  0.99314334    -0.23400
C243        C  0.24599878  0.19599367  0.97627118    -0.00500
H244        H  0.26434316  0.30714174  0.50289607     0.13300
H245        H  0.31690393  0.25282743  0.98682825     0.13400
N246        N  0.00819612  0.26643358  0.00058521    -0.02900
C247        C  0.46686737  0.22632687  0.98382920    -0.00400
C248        C  0.97811571  0.19139252  0.97611315    -0.23200
C249        C  0.99071057  0.22394899  0.58388599    -0.23400
C250        C  0.02179311  0.26404322  0.55815850    -0.00500
H251        H  0.44854242  0.15325102  0.96457596     0.13300
H252        H  0.99846706  0.20540231  0.61437823     0.13400
O253        O  0.06637690  0.23656817  0.67035503    -0.80400
O254        O  0.19479467  0.37636028  0.52128258    -0.65100
O255        O  0.15422189  0.28977221  0.63260043    -1.11700
C256        C  0.20358903  0.42404712  0.73017119     1.06500
O257        O  0.25870477  0.40052563  0.56591728    -0.78300
O258        O  0.26140462  0.36106855  0.66180893    -0.65800
Ni259      Ni  0.10946819  0.22813593  0.62384219     1.34900
C260        C  0.24051101  0.33455372  0.70009716     0.85300
O261        O  0.16602309  0.28171657  0.52543817    -0.78800
O262        O  0.15230751  0.22001908  0.57623890    -0.89100
C263        C  0.23447039  0.40931008  0.53252348     0.84800
O264        O  0.08030192  0.24095824  0.56579557    -0.67300
O265        O  0.23944665  0.42787215  0.70524796    -0.86600
C266        C  0.07258863  0.27624433  0.56146221     0.85700
C267        C  0.17167585  0.24566923  0.53646605     1.07200
H268        H  0.16996805  0.39585617  0.61757365     0.39000
O269        O  0.18492102  0.37648477  0.62584573    -1.09200
O270        O  0.20305410  0.33289619  0.71733401    -0.65900
Ni271      Ni  0.15300430  0.33632175  0.67962738     1.26300
O272        O  0.10658159  0.31772564  0.56476264    -0.66300
O273        O  0.16252815  0.38992145  0.72321278    -0.78400
C274        C  0.07138659  0.26213057  0.71020647     0.85000
O275        O  0.11108662  0.29155150  0.72688431    -0.65600
Ni276      Ni  0.24946638  0.41246197  0.63645880     1.27400
Ni277      Ni  0.17245392  0.32942891  0.57438013     1.26100
H278        H  0.18091207  0.28499726  0.64028821     0.39600
C279        C  0.50216152  0.05229904  0.76331388     0.03700
C280        C  0.04234986  0.05675006  0.76483908    -0.12500
C281        C  0.04511358  0.01425946  0.76503051     0.01200
C282        C  0.50414098  0.47354947  0.70461679    -0.11000
C283        C  0.46104595  0.47369392  0.69823888     0.03600
C284        C  0.46131715  0.01059151  0.76410778    -0.10400
H285        H  0.07369543  0.08947742  0.76293662     0.09200
H286        H  0.50618485  0.44103630  0.71066960     0.06800
H287        H  0.42801517  0.01130082  0.76456192     0.06600
N288        N  0.21184286  0.50179307  0.75865376    -0.02900
C289        C  0.25383422  0.04080540  0.77495193    -0.00400
C290        C  0.28816075  0.02888467  0.78985323    -0.23200
C291        C  0.25539274  0.47317844  0.79730009    -0.23400
C292        C  0.21495403  0.46149995  0.76921404    -0.00500
H293        H  0.32346303  0.05205283  0.80053186     0.13300
H294        H  0.27019984  0.44983654  0.80734668     0.13400
N295        N  0.48880131  0.22305392  0.75183016    -0.02900
C296        C  0.02983677  0.26472177  0.73033753    -0.00400
C297        C  0.50895681  0.29166499  0.71147852    -0.23200
C298        C  0.46449869  0.27570059  0.72909893    -0.23400
C299        C  0.45231451  0.23339916  0.75435913    -0.00500
H300        H  0.04455335  0.33498961  0.70209660     0.13300
H301        H  0.44454950  0.29524363  0.72794207     0.13400
N302        N  0.29670306  0.30591456  0.73911236    -0.02900
C303        C  0.29086606  0.26562713  0.76274007    -0.00400
C304        C  0.24484800  0.23318336  0.75969683    -0.23200
C305        C  0.22163813  0.25466134  0.73512851    -0.23400
C306        C  0.25417729  0.29944993  0.72261015    -0.00500
H307        H  0.22945042  0.19812016  0.77546639     0.13300
H308        H  0.18468048  0.23944608  0.72802300     0.13400
C309        C  0.01629091  0.13415746  0.80274606    -0.25800
C310        C  0.49872133  0.09637887  0.76032355    -0.13900
C311        C  0.48177922  0.10840884  0.71503193     0.36800
C312        C  0.47571302  0.14878771  0.71445610    -0.25200
C313        C  0.48710071  0.17799131  0.75772815    -0.14500
C314        C  0.01366655  0.17651987  0.80101915     0.37900
N315        N  0.03911563  0.21267045  0.83732371    -0.88700
H316        H  0.03630861  0.12814549  0.83308159     0.19000
H317        H  0.46372914  0.15862513  0.67940449     0.19000
N318        N  0.47195586  0.08110585  0.66869560    -0.87800
H319        H  0.07423191  0.22095567  0.83375595     0.36300
H320        H  0.02844694  0.19942735  0.87458643     0.41400
H321        H  0.44546573  0.04777284  0.67620316     0.41100
H322        H  0.50175928  0.07812171  0.65804826     0.35900
C323        C  0.11967087  0.03048363  0.72173744    -0.25800
C324        C  0.08978387  0.01233874  0.76417625    -0.13900
C325        C  0.09039346  0.48639921  0.76530433     0.36800
C326        C  0.13171156  0.48428517  0.77721575    -0.25200
C327        C  0.16994483  0.50392010  0.74398650    -0.14500
C328        C  0.15961282  0.02379596  0.71746425     0.37900
N329        N  0.18841543  0.04144833  0.67239735    -0.88700
H330        H  0.11120521  0.04867807  0.69119334     0.19000
H331        H  0.13430765  0.46771852  0.81292804     0.19000
N332        N  0.05209483  0.46687722  0.80054391    -0.87800
H333        H  0.16824911  0.02466186  0.64015191     0.36300
H334        H  0.21568256  0.03231290  0.67296415     0.41400
H335        H  0.06301275  0.48327852  0.83638617     0.41100
H336        H  0.04323030  0.43147143  0.80544994     0.35900
C337        C  0.41401431  0.38756173  0.69000390    -0.25800
C338        C  0.41791089  0.43045384  0.70829190    -0.13900
C339        C  0.38201245  0.43101102  0.73954089     0.36800
C340        C  0.34273840  0.38925572  0.74968079    -0.25200
C341        C  0.33905870  0.34698787  0.73116840    -0.14500
C342        C  0.37486935  0.34568505  0.70139203     0.37900
N343        N  0.37069488  0.30202577  0.68192335    -0.88700
H344        H  0.44131089  0.38671809  0.66638721     0.19000
H345        H  0.31475005  0.38934369  0.77269823     0.19000
N346        N  0.38582455  0.47353235  0.76213663    -0.87800
H347        H  0.39966910  0.30730966  0.65966273     0.36300
H348        H  0.34223316  0.28848260  0.65687093     0.41400
H349        H  0.41287162  0.48480707  0.78908804     0.41100
H350        H  0.35575550  0.46781630  0.78245829     0.35900
C351        C  0.09689736  0.09858357  0.93307847    -0.25800
C352        C  0.07986785  0.06731983  0.97472166    -0.13900
C353        C  0.10621885  0.07985591  0.52387489     0.36800
C354        C  0.14764647  0.12103902  0.52450766    -0.25200
C355        C  0.16124547  0.14993016  0.98641167    -0.14500
C356        C  0.13780072  0.14002795  0.93836053     0.37900
N357        N  0.15417614  0.17135460  0.89483881    -0.88700
H358        H  0.07858295  0.09051286  0.89638961     0.19000
H359        H  0.17218569  0.12811635  0.55593975     0.19000
N360        N  0.09491842  0.04697805  0.56589580    -0.87800
H361        H  0.16365748  0.15465398  0.86581851     0.36300
H362        H  0.18376070  0.20186890  0.90412567     0.41400
H363        H  0.06538273  0.04542823  0.58417506     0.41100
H364        H  0.12136669  0.05879317  0.59358550     0.35900
C365        C  0.02855363  0.38212627  0.94808477    -0.25800
C366        C  0.00151915  0.39387666  0.98207528    -0.13900
C367        C  0.48307833  0.36294878  0.03240245     0.36800
C368        C  0.48867215  0.32237496  0.03893385    -0.25200
C369        C  0.01392167  0.31332566  0.99964073    -0.14500
C370        C  0.03486925  0.34199818  0.95643299     0.37900
N371        N  0.06079278  0.32904958  0.92018741    -0.88700
H372        H  0.04377268  0.40371349  0.91426677     0.19000
H373        H  0.47258904  0.29955876  0.07164414     0.19000
N374        N  0.45923015  0.37577120  0.07093919    -0.87800
H375        H  0.07411898  0.35391626  0.89058773     0.36300
H376        H  0.03783365  0.29785627  0.90260059     0.41400
H377        H  0.48770039  0.40928154  0.57903507     0.41100
H378        H  0.43354921  0.37192085  0.55957826     0.35900
C379        C  0.34263838  0.00113210  0.94822718    -0.25800
C380        C  0.31920262  0.99298782  0.50074159    -0.13900
C381        C  0.36436860  0.52258316  0.51122785     0.36800
C382        C  0.40373994  0.51742078  0.49769461    -0.25200
C383        C  0.40147405  0.48407019  0.46105854    -0.14500
C384        C  0.38385905  0.99856786  0.93636402     0.37900
N385        N  0.40503066  0.01382376  0.88669107    -0.88700
H386        H  0.32554920  0.01211940  0.91881491     0.19000
H387        H  0.43616936  0.53914117  0.51695664     0.19000
N388        N  0.36755422  0.55559713  0.55007560    -0.87800
H389        H  0.41339043  0.04918212  0.88264363     0.36300
H390        H  0.38040389  0.99569342  0.85829605     0.41400
H391        H  0.39277669  0.58853831  0.53860826     0.41100
H392        H  0.37839731  0.54633863  0.58452200     0.35900
O393        O  0.43033606  0.75807256  0.41872969    -0.80400
O394        O  0.29718388  0.61971408  0.26944352    -0.65100
O395        O  0.34196688  0.70735047  0.37965417    -1.11700
C396        C  0.28679896  0.57248215  0.47682462     1.06500
O397        O  0.23457547  0.60253145  0.31414394    -0.78300
O398        O  0.23348424  0.64080070  0.41106140    -0.65800
Ni399      Ni  0.38843040  0.76801314  0.37096476     1.34900
C400        C  0.25510526  0.66542762  0.45006251     0.85300
O401        O  0.33168215  0.71580263  0.27179541    -0.78800
O402        O  0.34686268  0.77745375  0.32252563    -0.89100
C403        C  0.25601464  0.58972494  0.28143917     0.84800
O404        O  0.41677443  0.75418804  0.31334466    -0.67300
O405        O  0.25157230  0.57106669  0.45238057    -0.86600
C406        C  0.42295693  0.71808005  0.30883900     0.85700
C407        C  0.32749410  0.75260898  0.28240999     1.07200
H408        H  0.32120198  0.60035438  0.36592592     0.39000
O409        O  0.30754404  0.62084741  0.37366892    -1.09200
O410        O  0.29280616  0.66612382  0.46525813    -0.65900
Ni411      Ni  0.34089683  0.65987048  0.42697540     1.26300
O412        O  0.38792488  0.67703598  0.31236619    -0.66100
O413        O  0.32868028  0.60520659  0.47019269    -0.78400
C414        C  0.42404455  0.73242312  0.45910941     0.85000
O415        O  0.38387998  0.70296713  0.47449683    -0.65600
Ni416      Ni  0.24258578  0.58839491  0.38418290     1.27400
Ni417      Ni  0.32247961  0.66769673  0.32153496     1.26100
H418        H  0.31584091  0.71305871  0.38742036     0.39600
C419        C  0.99540618  0.94297640  0.48519809     0.03700
C420        C  0.03571023  0.98520784  0.48272053    -0.12500
C421        C  0.03449112  0.52664185  0.44388727     0.01200
C422        C  0.49297091  0.51980451  0.97193360    -0.11000
C423        C  0.44868814  0.98006970  0.96563576     0.03600
C424        C  0.45222651  0.93848926  0.97518574    -0.10400
H425        H  0.06933763  0.98559233  0.48668662     0.09200
H426        H  0.49186137  0.55312351  0.97023632     0.06800
H427        H  0.42104405  0.90600833  0.98029172     0.06600
N428        N  0.28352854  0.49227392  0.00800769    -0.02900
C429        C  0.24128998  0.95415662  0.02547569    -0.00400
C430        C  0.21151733  0.97014270  0.04544157    -0.23200
C431        C  0.23014148  0.51327981  0.03441761    -0.23400
C432        C  0.27367320  0.53398133  0.51490192    -0.00500
H433        H  0.17683319  0.94961428  0.05993974     0.13300
H434        H  0.21493514  0.54264923  0.54791330     0.13400
N435        N  0.19797319  0.69300495  0.48895152    -0.02900
C436        C  0.20428415  0.72905888  0.01467261    -0.00400
C437        C  0.25062303  0.76065760  0.01370248    -0.23200
C438        C  0.27388720  0.73856905  0.50089433    -0.23400
C439        C  0.24127726  0.69840596  0.47735902    -0.00500
H440        H  0.26645510  0.79469346  0.03175903     0.13300
H441        H  0.31118807  0.75163982  0.50009943     0.13400
N442        N  0.00176532  0.76890210  0.50451528    -0.02900
C443        C  0.46464151  0.73041347  0.48353494    -0.00400
C444        C  0.97375302  0.69485233  0.47650224    -0.23200
C445        C  0.01701009  0.70319779  0.00054712    -0.23400
C446        C  0.03441647  0.74936739  0.01681421    -0.00500
H447        H  0.44453243  0.65593022  0.47030205     0.13300
H448        H  0.03372039  0.68061130  0.00444127     0.13400
O449        O  0.06953236  0.73595273  0.18393846    -0.80400
O450        O  0.19329935  0.87132935  0.01923312    -0.65100
O451        O  0.15370336  0.78920213  0.13596976    -1.11700
C452        C  0.21102543  0.92852723  0.22713503     1.06500
O453        O  0.25660520  0.89481178  0.06255387    -0.78300
O454        O  0.26381653  0.86159037  0.15678736    -0.65800
Ni455      Ni  0.11061524  0.72700957  0.13473752     1.34900
C456        C  0.24511986  0.83535204  0.19563950     0.85300
O457        O  0.16666078  0.77609378  0.02968590    -0.78800
O458        O  0.15078454  0.71636773  0.08489935    -0.89100
C459        C  0.23289987  0.90449063  0.03002342     0.84800
O460        O  0.07589309  0.73436346  0.07986218    -0.67300
O461        O  0.24482078  0.93048358  0.19977946    -0.86600
C462        C  0.07430597  0.76752178  0.05420449     0.85700
C463        C  0.16993877  0.73928030  0.04338625     1.07200
H464        H  0.16922357  0.89366560  0.11608889     0.39000
O465        O  0.18478721  0.87496910  0.12473196    -1.09200
O466        O  0.20866687  0.83381213  0.21619276    -0.65900
Ni467      Ni  0.15625717  0.83751953  0.18255265     1.26300
O468        O  0.10638217  0.81016479  0.05757468    -0.66300
O469        O  0.16965019  0.89382265  0.22447658    -0.78400
C470        C  0.07698082  0.76044975  0.22507475     0.85000
O471        O  0.11678285  0.79483788  0.23476109    -0.65600
Ni472      Ni  0.25045418  0.91138848  0.13146918     1.27400
Ni473      Ni  0.17179812  0.82581949  0.07503386     1.26100
H474        H  0.18091006  0.78494516  0.14231422     0.39600
C475        C  0.49680387  0.55616624  0.18844297     0.03700
C476        C  0.03603782  0.55519757  0.18882942    -0.12500
C477        C  0.04072308  0.51368271  0.18740440     0.01200
C478        C  0.50908117  0.96968043  0.26926303    -0.11000
C479        C  0.46567675  0.96763249  0.27723833     0.03600
C480        C  0.45626937  0.51467326  0.18205203    -0.10400
H481        H  0.06581293  0.58780222  0.19821408     0.09200
H482        H  0.51214389  0.93788717  0.26182028     0.06800
H483        H  0.42288044  0.51503732  0.18466933     0.06600
N484        N  0.21602935  0.00625012  0.25590407    -0.02900
C485        C  0.24334982  0.53903645  0.27786872    -0.00400
C486        C  0.26605452  0.51831874  0.30522592    -0.23200
C487        C  0.27080897  0.98701312  0.28257475    -0.23400
C488        C  0.22582101  0.96927878  0.26317089    -0.00500
H489        H  0.29746040  0.53489411  0.32751979     0.13300
H490        H  0.29076031  0.96769866  0.28802670     0.13400
N491        N  0.49619979  0.72178216  0.26430330    -0.02900
C492        C  0.03767139  0.75156949  0.26185469    -0.00400
C493        C  0.54706591  0.78476547  0.30807428    -0.23200
C494        C  0.50518730  0.76784038  0.33256864    -0.23400
C495        C  0.47357320  0.72925544  0.30533379    -0.00500
H496        H  0.07546017  0.81082785  0.31424985     0.13300
H497        H  0.49779406  0.78555134  0.36393408     0.13400
N498        N  0.29833536  0.80587504  0.23900754    -0.02900
C499        C  0.29550182  0.76321472  0.24945725    -0.00400
C500        C  0.25487879  0.72912666  0.22906050    -0.23200
C501        C  0.23191597  0.75182094  0.20625870    -0.23400
C502        C  0.25971722  0.79929189  0.21211687    -0.00500
H503        H  0.24227164  0.69172865  0.23235353     0.13300
H504        H  0.19811326  0.73497004  0.18833262     0.13400
C505        C  0.97817053  0.59808540  0.25260737    -0.25800
C506        C  0.49267514  0.59762170  0.20631915    -0.13900
C507        C  0.48682079  0.62892958  0.17199678     0.36800
C508        C  0.48225971  0.66731248  0.19193708    -0.25200
C509        C  0.48601431  0.67612449  0.24542095    -0.14500
C510        C  0.97497611  0.63716679  0.27194907     0.37900
N511        N  0.97160065  0.64198745  0.32668276    -0.88700
H512        H  0.97739037  0.57155983  0.27936390     0.19000
H513        H  0.47967897  0.69243352  0.16555420     0.19000
N514        N  0.48767607  0.62368296  0.11705314    -0.87800
H515        H  0.00015359  0.64066174  0.34443087     0.36300
H516        H  0.94161298  0.61348849  0.33985070     0.41400
H517        H  0.46138003  0.59091484  0.10735235     0.41100
H518        H  0.51941364  0.62443201  0.10715230     0.35900
C519        C  0.11778462  0.51688535  0.16709131    -0.25800
C520        C  0.08446236  0.51348978  0.20384549    -0.13900
C521        C  0.09899035  0.98813583  0.29532496     0.36800
C522        C  0.13945513  0.98275570  0.29155773    -0.25200
C523        C  0.17077674  0.00360474  0.25099941    -0.14500
C524        C  0.15889005  0.51534128  0.18232209     0.37900
N525        N  0.19186536  0.51893166  0.14329030    -0.88700
H526        H  0.11165664  0.51998373  0.12637534     0.19000
H527        H  0.14789697  0.96446824  0.32202134     0.19000
N528        N  0.06875864  0.96901292  0.33882557    -0.87800
H529        H  0.22051913  0.51660592  0.15925422     0.36300
H530        H  0.20430384  0.55230396  0.12709228     0.41400
H531        H  0.08780256  0.98343774  0.37250538     0.41100
H532        H  0.05800222  0.93302376  0.33971944     0.35900
C533        C  0.41357529  0.90621013  0.21845778    -0.25800
C534        C  0.42396111  0.92398333  0.26884678    -0.13900
C535        C  0.39294860  0.90202707  0.30958301     0.36800
C536        C  0.34922660  0.86587492  0.29815530    -0.25200
C537        C  0.33848556  0.84870132  0.24769143    -0.14500
C538        C  0.37125851  0.86780551  0.20803374     0.37900
N539        N  0.36199387  0.84673103  0.15790363    -0.88700
H540        H  0.43823481  0.92224005  0.18735147     0.19000
H541        H  0.32452218  0.84888857  0.32891038     0.19000
N542        N  0.40691945  0.91520759  0.36222474    -0.87800
H543        H  0.38669233  0.83474730  0.15084845     0.36300
H544        H  0.36606623  0.87235685  0.13044349     0.41400
H545        H  0.43456956  0.90752075  0.37015663     0.41100
H546        H  0.38022184  0.89495194  0.38767001     0.35900
C547        C  0.09790648  0.60272426  0.41558523    -0.25800
C548        C  0.07506356  0.57105411  0.45549840    -0.13900
C549        C  0.09111501  0.58044200  0.01698918     0.36800
C550        C  0.13214554  0.62160642  0.02333869    -0.25200
C551        C  0.15521921  0.65339619  0.47704429    -0.14500
C552        C  0.13779743  0.64420069  0.42585409     0.37900
N553        N  0.15900356  0.67645436  0.38396487    -0.88700
H554        H  0.08474649  0.59514085  0.37634492     0.19000
H555        H  0.14677785  0.63228719  0.06162538     0.19000
N556        N  0.06614675  0.55391757  0.06130909    -0.87800
H557        H  0.17112194  0.66024192  0.35705137     0.36300
H558        H  0.18757885  0.70653154  0.39652636     0.41400
H559        H  0.03362626  0.55367696  0.06143968     0.41100
H560        H  0.08268111  0.57103289  0.09518726     0.35900
C561        C  0.03299685  0.89139791  0.46694595    -0.25800
C562        C  0.99947181  0.89918813  0.49429900    -0.13900
C563        C  0.46739576  0.85914973  0.53104826     0.36800
C564        C  0.47285672  0.81850927  0.53700603    -0.25200
C565        C  0.00698448  0.81554963  0.50775255    -0.14500
C566        C  0.03719370  0.84998759  0.47360209     0.37900
N567        N  0.07081552  0.84192775  0.44450151    -0.88700
H568        H  0.05510936  0.91706208  0.43918549     0.19000
H569        H  0.44891132  0.79052463  0.56138506     0.19000
N570        N  0.43387512  0.86536435  0.56182206    -0.87800
H571        H  0.08992106  0.87041289  0.42040272     0.36300
H572        H  0.05298794  0.81339167  0.42029380     0.41400
H573        H  0.46331159  0.88038914  0.10571680     0.41100
H574        H  0.41669704  0.85252876  0.06653449     0.35900
C575        C  0.31860154  0.46012982  0.45229662    -0.25800
C576        C  0.32710336  0.49299751  0.99555465    -0.13900
C577        C  0.34740441  0.97860092  0.03723895     0.36800
C578        C  0.38613241  0.97219582  0.02425977    -0.25200
C579        C  0.40439669  0.98169741  0.97406622    -0.14500
C580        C  0.35819733  0.45496515  0.43842003     0.37900
N581        N  0.35422379  0.42045111  0.40117029    -0.88700
H582        H  0.28543788  0.43752220  0.43505906     0.19000
H583        H  0.40372340  0.96219419  0.05408423     0.19000
N584        N  0.33249594  0.97475695  0.09020786    -0.87800
H585        H  0.34050735  0.42713073  0.36717821     0.36300
H586        H  0.33044142  0.38784086  0.41528449     0.41400
H587        H  0.33662781  0.00760855  0.10179597     0.41100
H588        H  0.35365162  0.96619032  0.11435204     0.35900
O589        O  0.42969159  0.75811438  0.92026724    -0.80400
O590        O  0.30001714  0.62032322  0.77049506    -0.65100
O591        O  0.34121725  0.70581394  0.88280128    -1.11700
C592        C  0.28915909  0.56988143  0.97792692     1.06500
O593        O  0.23639498  0.59788866  0.81456500    -0.78300
O594        O  0.23375923  0.63602974  0.91049086    -0.65800
Ni595      Ni  0.38559851  0.76746886  0.87534501     1.34900
C596        C  0.25417342  0.66123542  0.94961322     0.85300
O597        O  0.32843165  0.71597450  0.77628455    -0.78800
O598        O  0.34197363  0.77615715  0.82934414    -0.89100
C599        C  0.25994084  0.58787305  0.78190843     0.84800
O600        O  0.41279175  0.75630952  0.81531340    -0.67300
O601        O  0.25426209  0.56864938  0.95307950    -0.86600
C602        C  0.42189505  0.72222355  0.80909951     0.85700
C603        C  0.32283304  0.75177463  0.78879770     1.07200
H604        H  0.32471504  0.60015281  0.86664093     0.39000
O605        O  0.31001696  0.61958413  0.87496314    -1.09200
O606        O  0.29163019  0.66240172  0.96687820    -0.65900
Ni607      Ni  0.34178524  0.65857750  0.92947402     1.26300
O608        O  0.38903690  0.68004768  0.81285688    -0.66100
O609        O  0.33085735  0.60352899  0.97247658    -0.78400
C610        C  0.42448828  0.73289374  0.96089295     0.85000
O611        O  0.38460406  0.70278577  0.97699522    -0.65600
Ni612      Ni  0.24509423  0.58474105  0.88470167     1.27400
Ni613      Ni  0.32279858  0.66722390  0.82395119     1.26100
H614        H  0.31452888  0.71048635  0.89053463     0.39600
C615        C  0.99827674  0.93978500  0.98237012     0.03700
C616        C  0.03903474  0.98144445  0.97690517    -0.12500
C617        C  0.03294630  0.52086358  0.95971023     0.01200
C618        C  0.48637579  0.52230887  0.44267214    -0.11000
C619        C  0.44415566  0.98005421  0.47936579     0.03600
C620        C  0.44700049  0.93766232  0.48435433    -0.10400
H621        H  0.07248122  0.98161971  0.98193125     0.09200
H622        H  0.48582113  0.55583078  0.44464026     0.06800
H623        H  0.41534014  0.90528835  0.48589441     0.06600
N624        N  0.28000217  0.49508956  0.50724322    -0.02900
C625        C  0.23684137  0.95555080  0.52601316    -0.00400
C626        C  0.20569533  0.97060380  0.54409322    -0.23200
C627        C  0.23192861  0.52078049  0.54064339    -0.23400
C628        C  0.27488602  0.52990926  0.01483480    -0.00500
H629        H  0.17163152  0.94948294  0.55996434     0.13300
H630        H  0.21076811  0.53326247  0.03856898     0.13400
N631        N  0.19778027  0.68972932  0.98855468    -0.02900
C632        C  0.20351872  0.72936077  0.52009361    -0.00400
C633        C  0.25010700  0.75820034  0.52733194    -0.23200
C634        C  0.27343239  0.73968527  0.98784630    -0.23400
C635        C  0.24043183  0.69596933  0.97263522    -0.00500
H636        H  0.26520043  0.78938684  0.55085440     0.13300
H637        H  0.31052714  0.75432863  0.98205228     0.13400
N638        N  0.00187694  0.76453420  0.00696087    -0.02900
C639        C  0.46614161  0.73179337  0.98393353    -0.00400
C640        C  0.97302061  0.68953022  0.98225208    -0.23200
C641        C  0.01649047  0.70726227  0.49781291    -0.23400
C642        C  0.03345582  0.75281540  0.51591113    -0.00500
H643        H  0.45164426  0.66032309  0.96134082     0.13300
H644        H  0.03261554  0.68420038  0.50220476     0.13400
O645        O  0.06626130  0.73735973  0.68447480    -0.80400
O646        O  0.19154421  0.87199085  0.52169661    -0.65100
O647        O  0.15137033  0.78854692  0.63727484    -1.11700
C648        C  0.20923663  0.92483911  0.73127696     1.06500
O649        O  0.25580871  0.89818936  0.56426136    -0.78300
O650        O  0.26037470  0.85832408  0.65741303    -0.65800
Ni651      Ni  0.10659662  0.72699755  0.63545378     1.34900
C652        C  0.24161891  0.83286895  0.69698355     0.85300
O653        O  0.16470422  0.77600774  0.53143738    -0.78800
O654        O  0.14664083  0.71552641  0.58634160    -0.89100
C655        C  0.23039953  0.90640673  0.53240230     0.84800
O656        O  0.07284701  0.73560839  0.58007797    -0.67300
O657        O  0.24298784  0.92590733  0.70462334    -0.86600
C658        C  0.07235490  0.76949500  0.55476795     0.85700
C659        C  0.16750486  0.73901641  0.54576494     1.07200
H660        H  0.16804511  0.89398771  0.61831578     0.39000
O661        O  0.18312099  0.87478732  0.62687503    -1.09200
O662        O  0.20607581  0.83288265  0.71771671    -0.65900
Ni663      Ni  0.15413592  0.83662166  0.68404595     1.26300
O664        O  0.10503680  0.81166852  0.55913262    -0.66300
O665        O  0.16729390  0.89186038  0.72671954    -0.78400
C666        C  0.07528166  0.76156271  0.72606317     0.85000
O667        O  0.11587511  0.79394961  0.73596879    -0.65600
Ni668      Ni  0.24882726  0.91036301  0.63484662     1.27400
Ni669      Ni  0.17004880  0.82591888  0.57688357     1.26100
H670        H  0.17769087  0.78318566  0.64378908     0.39600
C671        C  0.49884889  0.55822175  0.70019939     0.03700
C672        C  0.04223205  0.55363509  0.70310285    -0.12500
C673        C  0.04364052  0.51055865  0.70552487     0.01200
C674        C  0.50566990  0.96669024  0.76041402    -0.11000
C675        C  0.46306633  0.96802874  0.76165291     0.03600
C676        C  0.45953938  0.51635302  0.69077750    -0.10400
H677        H  0.07345169  0.58558244  0.71039195     0.09200
H678        H  0.50666238  0.93338213  0.75799113     0.06800
H679        H  0.42667010  0.51703299  0.68429397     0.06600
N680        N  0.21516677  0.00165119  0.76169699    -0.02900
C681        C  0.25086850  0.53814727  0.77703686    -0.00400
C682        C  0.27850810  0.52096448  0.80052136    -0.23200
C683        C  0.26924213  0.98110441  0.78773722    -0.23400
C684        C  0.22432555  0.96437306  0.76836910    -0.00500
H685        H  0.31230974  0.54051587  0.81754659     0.13300
H686        H  0.28871984  0.96122989  0.79256736     0.13400
N687        N  0.49578931  0.72442049  0.76620936    -0.02900
C688        C  0.03714339  0.75555135  0.76257051    -0.00400
C689        C  0.54592270  0.79407384  0.79889666    -0.23200
C690        C  0.50380110  0.78086449  0.82184582    -0.23400
C691        C  0.47301141  0.73772036  0.80202413    -0.00500
H692        H  0.07354392  0.82136527  0.80575630     0.13300
H693        H  0.49559447  0.80249273  0.84786013     0.13400
N694        N  0.29452519  0.80354697  0.74024191    -0.02900
C695        C  0.28941372  0.76151845  0.75754410    -0.00400
C696        C  0.24588347  0.72742851  0.74439495    -0.23200
C697        C  0.22371831  0.74963823  0.71879915    -0.23400
C698        C  0.25484634  0.79652064  0.71565392    -0.00500
H699        H  0.23110272  0.69072110  0.75429127     0.13300
H700        H  0.18818204  0.73333481  0.70539653     0.13400
C701        C  0.99893649  0.60753308  0.76529977    -0.25800
C702        C  0.49211661  0.59884104  0.71592444    -0.13900
C703        C  0.48173723  0.62638784  0.68033692     0.36800
C704        C  0.47719232  0.66539282  0.69822823    -0.25200
C705        C  0.48360796  0.67746720  0.75086831    -0.14500
C706        C  0.99376867  0.64590300  0.78345169     0.37900
N707        N  0.00246541  0.65877776  0.83688793    -0.88700
H708        H  0.00718049  0.58648274  0.79254734     0.19000
H709        H  0.47263892  0.68856644  0.67062008     0.19000
N710        N  0.47828673  0.61701461  0.62592446    -0.87800
H711        H  0.03631394  0.66466606  0.84565256     0.36300
H712        H  0.97973699  0.63060468  0.85931478     0.41400
H713        H  0.45228384  0.58316833  0.62007624     0.41100
H714        H  0.50962957  0.61827374  0.61348181     0.35900
C715        C  0.12551202  0.52841497  0.68598435    -0.25800
C716        C  0.08712215  0.50848060  0.71919554    -0.13900
C717        C  0.10014808  0.98767697  0.80315301     0.36800
C718        C  0.14002441  0.98132034  0.79927610    -0.25200
C719        C  0.17022328  0.99975714  0.75739437    -0.14500
C720        C  0.16679800  0.52605911  0.69785814     0.37900
N721        N  0.20441340  0.54491810  0.66184781    -0.88700
H722        H  0.12314248  0.54521049  0.65038476     0.19000
H723        H  0.14880915  0.96391248  0.83041470     0.19000
N724        N  0.07060145  0.96998278  0.84737798    -0.87800
H725        H  0.21326945  0.51837641  0.65182135     0.36300
H726        H  0.23293328  0.57138239  0.68005507     0.41400
H727        H  0.09046753  0.98457474  0.88049724     0.41100
H728        H  0.05898053  0.93386817  0.84879866     0.35900
C729        C  0.40683016  0.90424898  0.70827201    -0.25800
C730        C  0.41989473  0.92519336  0.75700805    -0.13900
C731        C  0.39055453  0.90676579  0.80004541     0.36800
C732        C  0.34781160  0.86770717  0.79336549    -0.25200
C733        C  0.33515903  0.84659069  0.74490926    -0.14500
C734        C  0.36429116  0.86489630  0.70210727     0.37900
N735        N  0.35079881  0.84236847  0.65295692    -0.88700
H736        H  0.42943681  0.91872130  0.67514920     0.19000
H737        H  0.32481034  0.85272134  0.82603007     0.19000
N738        N  0.40481020  0.92724383  0.85027896    -0.87800
H739        H  0.37401774  0.82916092  0.64345448     0.36300
H740        H  0.35315324  0.86725126  0.62526566     0.41400
H741        H  0.43388178  0.92293240  0.86117186     0.41100
H742        H  0.37906916  0.90947047  0.87776323     0.35900
C743        C  0.09579967  0.59376641  0.92389344    -0.25800
C744        C  0.07434083  0.56539985  0.96667337    -0.13900
C745        C  0.09041088  0.58208800  0.50710450     0.36800
C746        C  0.13108489  0.62276243  0.51717293    -0.25200
C747        C  0.15473482  0.64921453  0.98059564    -0.14500
C748        C  0.13524197  0.63644606  0.93052235     0.37900
N749        N  0.15328286  0.66671619  0.88639772    -0.88700
H750        H  0.08133714  0.58311148  0.88549018     0.19000
H751        H  0.14439849  0.63062750  0.55634296     0.19000
N752        N  0.06446759  0.55195901  0.54890289    -0.87800
H753        H  0.16620496  0.65059516  0.86032615     0.36300
H754        H  0.18067032  0.69865262  0.89664273     0.41400
H755        H  0.03217591  0.55220255  0.55009083     0.41100
H756        H  0.08043232  0.56536654  0.58440298     0.35900
C757        C  0.03480210  0.88689747  0.96703202    -0.25800
C758        C  0.00131963  0.89561876  0.99321671    -0.13900
C759        C  0.47805958  0.86728133  0.03353315     0.36800
C760        C  0.48182070  0.82578695  0.04088995    -0.25200
C761        C  0.00703965  0.81119787  0.00840197    -0.14500
C762        C  0.03782843  0.84498628  0.97413772     0.37900
N763        N  0.07057014  0.83560578  0.94494475    -0.88700
H764        H  0.05768117  0.91209457  0.93944077     0.19000
H765        H  0.46157702  0.80141127  0.07080165     0.19000
N766        N  0.45058089  0.87922180  0.06817714    -0.87800
H767        H  0.09021350  0.86375718  0.92066766     0.36300
H768        H  0.05191277  0.80717504  0.92085938     0.41400
H769        H  0.44264666  0.86435761  0.60063375     0.41100
H770        H  0.40145189  0.83731545  0.55474180     0.35900
C771        C  0.32941757  0.46411171  0.95608055    -0.25800
C772        C  0.32139514  0.49375952  0.48864967    -0.13900
C773        C  0.34324340  0.98713153  0.54358043     0.36800
C774        C  0.38265161  0.98033935  0.53524923    -0.25200
C775        C  0.39968867  0.98197389  0.48507005    -0.14500
C776        C  0.36978064  0.45862258  0.94860313     0.37900
N777        N  0.37195558  0.42982207  0.90752353    -0.88700
H778        H  0.29944813  0.44522752  0.93168917     0.19000
H779        H  0.40099667  0.97518444  0.56798949     0.19000
N780        N  0.32705092  0.98783969  0.59523510    -0.87800
H781        H  0.36574481  0.44277775  0.87268433     0.36300
H782        H  0.34519886  0.39618303  0.91296954     0.41400
H783        H  0.32965605  0.02111500  0.60163623     0.41100
H784        H  0.34846249  0.98291275  0.62254459     0.35900
O785        O  0.92613661  0.25614259  0.44097900    -0.80400
O786        O  0.80407504  0.13574729  0.26684664    -0.65100
O787        O  0.84230730  0.20767604  0.39047751    -1.11700
C788        C  0.78126531  0.06311546  0.47127786     1.06500
O789        O  0.73894363  0.10491384  0.30797972    -0.78300
O790        O  0.73206711  0.13543246  0.40646186    -0.65800
Ni791      Ni  0.88687688  0.26945647  0.39325259     1.34900
C792        C  0.75091328  0.15758449  0.44789682     0.85300
O793        O  0.83275736  0.22979538  0.28552369    -0.78800
O794        O  0.84809420  0.28480807  0.34589207    -0.89100
C795        C  0.76565369  0.10002896  0.27514871     0.84800
O796        O  0.92199348  0.26450913  0.33728141    -0.67300
O797        O  0.74853370  0.06315978  0.44338249    -0.86600
C798        C  0.92314166  0.23213616  0.30996488     0.85700
C799        C  0.82908251  0.26523120  0.30302669     1.07200
H800        H  0.82518799  0.10411950  0.36049483     0.39000
O801        O  0.81002488  0.12252599  0.37139354    -1.09200
O802        O  0.78618065  0.15561505  0.46710432    -0.65900
Ni803      Ni  0.83862402  0.15531962  0.43176979     1.26300
O804        O  0.88980949  0.19011720  0.31030648    -0.66100
O805        O  0.82356111  0.09620328  0.46910934    -0.78400
C806        C  0.91694213  0.22907365  0.48041502     0.85000
O807        O  0.87727273  0.19356829  0.48705839    -0.65600
Ni808      Ni  0.74418470  0.08597173  0.37652322     1.27400
Ni809      Ni  0.82472704  0.17594831  0.32653079     1.26100
H810        H  0.81572743  0.21242065  0.39861405     0.39600
C811        C  0.49023335  0.43679519  0.44492850     0.03700
C812        C  0.53055047  0.47830041  0.43820457    -0.12500
C813        C  0.52779875  0.02211317  0.48124141     0.01200
C814        C  0.99468489  0.02493711  0.96506276    -0.11000
C815        C  0.94905950  0.47882428  0.96489616     0.03600
C816        C  0.95242640  0.43674932  0.97174951    -0.10400
H817        H  0.56388087  0.47764912  0.43788167     0.09200
H818        H  0.99356206  0.05817911  0.96204337     0.06800
H819        H  0.92145945  0.40449811  0.97873751     0.06600
N820        N  0.78259699  0.99061308  0.00817234    -0.02900
C821        C  0.74038540  0.44735610  0.02201081    -0.00400
C822        C  0.70509995  0.45814094  0.03509066    -0.23200
C823        C  0.73360415  0.01688532  0.03577512    -0.23400
C824        C  0.76400527  0.02217556  0.50732009    -0.00500
H825        H  0.66974810  0.43417706  0.04458897     0.13300
H826        H  0.69845008  0.02441033  0.52764704     0.13400
N827        N  0.69684349  0.18902487  0.48477985    -0.02900
C828        C  0.70975254  0.22536789  0.01576459    -0.00400
C829        C  0.75515681  0.25831694  0.00916008    -0.23200
C830        C  0.77301931  0.23620352  0.48736415    -0.23400
C831        C  0.73909499  0.19331418  0.47104604    -0.00500
H832        H  0.77121963  0.29344569  0.02442827     0.13300
H833        H  0.81016275  0.24907697  0.48390513     0.13400
N834        N  0.50239076  0.27195745  0.50378810    -0.02900
C835        C  0.95464155  0.23733386  0.51873573    -0.00400
C836        C  0.45032681  0.20524094  0.54161093    -0.23200
C837        C  0.51793242  0.19936770  0.99389018    -0.23400
C838        C  0.53792422  0.24598707  0.00919671    -0.00500
H839        H  0.91824507  0.17550668  0.56852663     0.13300
H840        H  0.53341519  0.17561773  0.99644055     0.13400
O841        O  0.56437422  0.23004181  0.17074864    -0.80400
O842        O  0.69898279  0.36489938  0.01765454    -0.65100
O843        O  0.65268017  0.28423679  0.13400910    -1.11700
C844        C  0.69664865  0.42232626  0.22414636     1.06500
O845        O  0.75953434  0.39336069  0.06715766    -0.78300
O846        O  0.75974835  0.36112031  0.16777593    -0.65800
Ni847      Ni  0.61033059  0.22162059  0.12912280     1.34900
C848        C  0.73758614  0.33568987  0.20625754     0.85300
O849        O  0.67197720  0.27168728  0.02984803    -0.78800
O850        O  0.65511859  0.21222439  0.08534729    -0.89100
C851        C  0.73657876  0.39981356  0.03051563     0.84800
O852        O  0.58047679  0.22885527  0.06927951    -0.67300
O853        O  0.73300218  0.42787921  0.19930533    -0.86600
C854        C  0.57845402  0.26270651  0.04555469     0.85700
C855        C  0.67563381  0.23551852  0.04453879     1.07200
H856        H  0.66637894  0.38742930  0.10908301     0.39000
O857        O  0.68209858  0.36992837  0.12114381    -1.09200
O858        O  0.69792509  0.33171832  0.21840536    -0.65900
Ni859      Ni  0.64875640  0.33215424  0.17646234     1.26300
O860        O  0.60989226  0.30528779  0.05122197    -0.66300
O861        O  0.65622779  0.38715320  0.21685101    -0.78400
C862        C  0.56718799  0.25658482  0.20896333     0.85000
O863        O  0.60579721  0.28889923  0.22486381    -0.65600
Ni864      Ni  0.74622305  0.40878801  0.13427483     1.27400
Ni865      Ni  0.67417873  0.32076603  0.07352289     1.26100
H866        H  0.67942851  0.28092569  0.14542760     0.39600
C867        C  0.99829918  0.05776897  0.26667499     0.03700
C868        C  0.54430579  0.05404565  0.27632339    -0.12500
C869        C  0.54855587  0.01259729  0.27060321     0.01200
C870        C  0.00124510  0.47099086  0.18134308    -0.11000
C871        C  0.95736269  0.46960560  0.17764947     0.03600
C872        C  0.95800265  0.01566338  0.26406873    -0.10400
H873        H  0.57489167  0.08742365  0.27446900     0.09200
H874        H  0.00410663  0.43869912  0.18561388     0.06800
H875        H  0.92431151  0.01543613  0.26587135     0.06600
N876        N  0.70531122  0.50033646  0.25427587    -0.02900
C877        C  0.76231980  0.05253852  0.26585075    -0.00400
C878        C  0.79749389  0.04116380  0.27861478    -0.23200
C879        C  0.74661470  0.46966517  0.29367481    -0.23400
C880        C  0.70724019  0.45925645  0.26390766    -0.00500
H881        H  0.83258756  0.06476475  0.28975630     0.13300
H882        H  0.76089048  0.44579279  0.30336412     0.13400
N883        N  0.99233910  0.23160420  0.25843143    -0.02900
C884        C  0.52387661  0.25670504  0.22737448    -0.00400
C885        C  0.02603296  0.30778944  0.23731818    -0.23200
C886        C  0.98452448  0.29746209  0.26053770    -0.23400
C887        C  0.96411640  0.25044842  0.27424466    -0.00500
H888        H  0.52910556  0.31776306  0.18294285     0.13300
H889        H  0.97142553  0.32250661  0.26865182     0.13400
N890        N  0.79671922  0.30929616  0.24434508    -0.02900
C891        C  0.79261424  0.27577655  0.27964191    -0.00400
C892        C  0.74676482  0.24971178  0.29292281    -0.23200
C893        C  0.72199785  0.26831579  0.26645424    -0.23400
C894        C  0.75319386  0.30530024  0.23695836    -0.00500
H895        H  0.73289543  0.22078484  0.31999573     0.13300
H896        H  0.68495478  0.25651766  0.26932778     0.13400
C897        C  0.52152927  0.13364171  0.31125597    -0.25800
C898        C  0.99401679  0.10134407  0.26579750    -0.13900
C899        C  0.98070125  0.11599520  0.21974282     0.36800
C900        C  0.97659207  0.15740109  0.21943881    -0.25200
C901        C  0.98624970  0.18491368  0.26391339    -0.14500
C902        C  0.51917922  0.17618338  0.30595871     0.37900
N903        N  0.54967166  0.21610763  0.33512857    -0.88700
H904        H  0.54604858  0.13123207  0.33830107     0.19000
H905        H  0.96820733  0.16964963  0.18359485     0.19000
N906        N  0.97312111  0.09049190  0.17230729    -0.87800
H907        H  0.58377027  0.22306236  0.32625583     0.36300
H908        H  0.54423811  0.20754028  0.37446434     0.41400
H909        H  0.94559579  0.05729323  0.17742246     0.41100
H910        H  0.00300296  0.08690171  0.16364100     0.35900
C911        C  0.62136947  0.03344860  0.22198573    -0.25800
C912        C  0.59383581  0.01299602  0.26560976    -0.13900
C913        C  0.59858288  0.51746206  0.25745851     0.36800
C914        C  0.63856426  0.51410354  0.27266955    -0.25200
C915        C  0.66507027  0.50407148  0.23647243    -0.14500
C916        C  0.66336339  0.03138153  0.21533743     0.37900
N917        N  0.68994486  0.05093125  0.16942282    -0.88700
H918        H  0.60980276  0.05033004  0.19285618     0.19000
H919        H  0.64908044  0.51928624  0.31294930     0.19000
N920        N  0.57217065  0.52825764  0.29492519    -0.87800
H921        H  0.69474024  0.02460531  0.15059263     0.36300
H922        H  0.72244928  0.07710413  0.17992437     0.41400
H923        H  0.59378122  0.56051809  0.31141537     0.41100
H924        H  0.56211160  0.50296818  0.32417950     0.35900
C925        C  0.89044203  0.39272268  0.15793701    -0.25800
C926        C  0.91689206  0.42692902  0.19390107    -0.13900
C927        C  0.90507778  0.42059038  0.24673336     0.36800
C928        C  0.86579761  0.38100057  0.26269788    -0.25200
C929        C  0.83884748  0.34707803  0.22693047    -0.14500
C930        C  0.85200347  0.35177276  0.17436659     0.37900
N931        N  0.82767129  0.31424503  0.13875750    -0.88700
H932        H  0.89966428  0.39813268  0.11741378     0.19000
H933        H  0.85588211  0.37663413  0.30308146     0.19000
N934        N  0.93299909  0.45462520  0.28408952    -0.87800
H935        H  0.84254289  0.32285990  0.10191744     0.36300
H936        H  0.79367360  0.30958476  0.13498944     0.41400
H937        H  0.94454517  0.43803079  0.31145499     0.41100
H938        H  0.91208412  0.46689418  0.30310984     0.35900
C939        C  0.58153423  0.09727977  0.44162996    -0.25800
C940        C  0.57034115  0.06617307  0.48344635    -0.13900
C941        C  0.59784782  0.07648589  0.02240681     0.36800
C942        C  0.64068850  0.11572205  0.02637417    -0.25200
C943        C  0.65422466  0.14749797  0.48295460    -0.14500
C944        C  0.62353772  0.13791155  0.44066390     0.37900
N945        N  0.63396624  0.16838612  0.39648589    -0.88700
H946        H  0.55802090  0.08918403  0.40903405     0.19000
H947        H  0.66031489  0.12289061  0.06212165     0.19000
N948        N  0.57884508  0.04565678  0.06599266    -0.87800
H949        H  0.63584411  0.14978317  0.36414605     0.36300
H950        H  0.66640592  0.19713877  0.40008940     0.41400
H951        H  0.54824928  0.04698340  0.07681013     0.41100
H952        H  0.60125537  0.05740013  0.09774945     0.35900
C953        C  0.51755277  0.37652391  0.42652348    -0.25800
C954        C  0.49570793  0.39507162  0.46003520    -0.13900
C955        C  0.98632277  0.38206067  0.51850870     0.36800
C956        C  0.98957389  0.34223925  0.53539298    -0.25200
C957        C  0.51029136  0.31855011  0.49151039    -0.14500
C958        C  0.52438180  0.33769847  0.44165556     0.37900
N959        N  0.54470971  0.31729030  0.40671736    -0.88700
H960        H  0.52817178  0.39165294  0.38831382     0.19000
H961        H  0.97586341  0.32763622  0.57308888     0.19000
N962        N  0.96664963  0.40405523  0.55188283    -0.87800
H963        H  0.55376936  0.33600743  0.37187792     0.36300
H964        H  0.51951626  0.28368554  0.39768182     0.41400
H965        H  0.97400186  0.38314633  0.09934913     0.41100
H966        H  0.92432547  0.35078892  0.06682626     0.35900
C967        C  0.84186026  0.00183300  0.44860885    -0.25800
C968        C  0.82600029  0.98998358  0.99872660    -0.13900
C969        C  0.86360952  0.51884526  0.01765814     0.36800
C970        C  0.90438044  0.51516346  0.00739533    -0.25200
C971        C  0.90477077  0.48148067  0.97291824    -0.14500
C972        C  0.88533931  0.00274687  0.44100366     0.37900
N973        N  0.90946110  0.01947158  0.39305629    -0.88700
H974        H  0.82521809  0.01093784  0.41703512     0.19000
H975        H  0.93573127  0.53786220  0.02783482     0.19000
N976        N  0.86379493  0.55154360  0.05536835    -0.87800
H977        H  0.91595929  0.05431360  0.38859321     0.36300
H978        H  0.88737247  0.00063078  0.36296396     0.41400
H979        H  0.88791194  0.58491972  0.04367776     0.41100
H980        H  0.87507092  0.54400549  0.09060543     0.35900
O981        O  0.93223135  0.25759344  0.92250006    -0.80400
O982        O  0.80123770  0.12785037  0.76434498    -0.65100
O983        O  0.84495963  0.20634247  0.88216400    -1.11700
C984        C  0.79156163  0.06746233  0.97356565     1.06500
O985        O  0.73846330  0.09798436  0.80994230    -0.78300
O986        O  0.73579259  0.13233382  0.90751011    -0.65800
Ni987      Ni  0.88849306  0.26870704  0.87981733     1.34900
C988        C  0.75659475  0.15754101  0.94652636     0.85300
O989        O  0.82883181  0.22230134  0.77816233    -0.78800
O990        O  0.84546632  0.28036832  0.83531900    -0.89100
C991        C  0.76352955  0.09224044  0.77564789     0.84800
O992        O  0.91952778  0.26293482  0.82050053    -0.67300
O993        O  0.75722373  0.06369115  0.94584930    -0.86600
C994        C  0.92058891  0.22915773  0.79604030     0.85700
C995        C  0.82510066  0.25817582  0.79401965     1.07200
H996        H  0.82865685  0.10206655  0.85787324     0.39000
O997        O  0.81335022  0.12035534  0.86880425    -1.09200
O998        O  0.79419947  0.15897570  0.96351975    -0.65900
Ni999      Ni  0.84485463  0.15685405  0.92583796     1.26300
O1000       O  0.88891557  0.18658833  0.80142982    -0.66100
O1001       O  0.83320904  0.10096325  0.96761603    -0.78400
C1002       C  0.92726709  0.23008200  0.96066135     0.85000
O1003       O  0.88747552  0.19872647  0.97548644    -0.65600
Ni1004     Ni  0.74828009  0.08272306  0.87866733     1.27400
Ni1005     Ni  0.82434138  0.17114529  0.82120110     1.26100
H1006       H  0.81844088  0.21075573  0.89150000     0.39600
C1007       C  0.49713966  0.43466226  0.98073144     0.03700
C1008       C  0.53785038  0.47662318  0.97847006    -0.12500
C1009       C  0.53222169  0.02305802  0.96775510     0.01200
C1010       C  0.99021699  0.02775056  0.47316949    -0.11000
C1011       C  0.95030774  0.48366601  0.44559035     0.03600
C1012       C  0.95415744  0.44174310  0.44965628    -0.10400
H1013       H  0.57132402  0.47650754  0.98171978     0.09200
H1014       H  0.98831724  0.06066576  0.47126317     0.06800
H1015       H  0.92358577  0.40923170  0.45693275     0.06600
N1016       N  0.77449453  0.98552965  0.50421931    -0.02900
C1017       C  0.74381979  0.45429757  0.52306878    -0.00400
C1018       C  0.71256230  0.46878665  0.54160934    -0.23200
C1019       C  0.71854045  0.00501488  0.52491727    -0.23400
C1020       C  0.77713540  0.03010403  0.01386987    -0.00500
H1021       H  0.67766279  0.44703776  0.55450874     0.13300
H1022       H  0.71681639  0.03923098  0.04103323     0.13400
N1023       N  0.70238919  0.18569370  0.99042861    -0.02900
C1024       C  0.70408792  0.22902346  0.50948592    -0.00400
C1025       C  0.75083759  0.25895801  0.51097767    -0.23200
C1026       C  0.77664387  0.23745481  0.98067630    -0.23400
C1027       C  0.74353575  0.19259498  0.96941983    -0.00500
H1028       H  0.76722359  0.29261471  0.52981324     0.13300
H1029       H  0.81301059  0.25306168  0.97045005     0.13400
N1030       N  0.50615736  0.26255971  0.00176381    -0.02900
C1031       C  0.96962192  0.22943146  0.98218170    -0.00400
C1032       C  0.47319689  0.18694670  0.97912177    -0.23200
C1033       C  0.49090453  0.22055874  0.56818165    -0.23400
C1034       C  0.52304121  0.26141988  0.54482958    -0.00500
H1035       H  0.95463428  0.15756844  0.96078935     0.13300
H1036       H  0.49730848  0.20118840  0.59886592     0.13400
O1037       O  0.56167186  0.23566198  0.66357580    -0.80400
O1038       O  0.69731448  0.37210836  0.51764688    -0.65100
O1039       O  0.65104474  0.28649528  0.62994360    -1.11700
C1040       C  0.70085337  0.42160489  0.72662964     1.06500
O1041       O  0.75949577  0.39643732  0.56506670    -0.78300
O1042       O  0.75817650  0.35693136  0.66245685    -0.65800
Ni1043     Ni  0.60549409  0.22532138  0.62079104     1.34900
C1044       C  0.73598758  0.33126313  0.70079839     0.85300
O1045       O  0.66656456  0.27637094  0.52427007    -0.78800
O1046       O  0.64888986  0.21490601  0.57722754    -0.89100
C1047       C  0.73652957  0.40529176  0.53015700     0.84800
O1048       O  0.58035840  0.23829380  0.55951520    -0.67300
O1049       O  0.73678186  0.42465014  0.70260018    -0.86600
C1050       C  0.57339900  0.27372511  0.55244896     0.85700
C1051       C  0.66980875  0.23931955  0.53739558     1.07200
H1052       H  0.66943892  0.39283067  0.61186717     0.39000
O1053       O  0.68375771  0.37323228  0.62182927    -1.09200
O1054       O  0.69770297  0.32941273  0.71541525    -0.65900
Ni1055     Ni  0.64947632  0.33393077  0.67538906     1.26300
O1056       O  0.60734412  0.31503865  0.55714160    -0.66300
O1057       O  0.65945814  0.38834162  0.71835136    -0.78400
C1058       C  0.56580375  0.25969565  0.70448299     0.85000
O1059       O  0.60499559  0.28989572  0.72189938    -0.65600
Ni1060     Ni  0.74813341  0.40867069  0.63473075     1.27400
Ni1061     Ni  0.67225849  0.32548021  0.57130773     1.26100
H1062       H  0.67695759  0.28102010  0.63964637     0.39600
C1063       C  0.99872306  0.05660256  0.76694707     0.03700
C1064       C  0.54522232  0.05132193  0.76234782    -0.12500
C1065       C  0.54695792  0.00826652  0.76131800     0.01200
C1066       C  0.00229643  0.46914543  0.70222821    -0.11000
C1067       C  0.95969199  0.47047769  0.69649195     0.03600
C1068       C  0.95859648  0.01431024  0.77070537    -0.10400
H1069       H  0.57699706  0.08369029  0.76169398     0.09200
H1070       H  0.00318164  0.43603243  0.70795436     0.06800
H1071       H  0.92490443  0.01392076  0.77332953     0.06600
N1072       N  0.70943876  0.49963540  0.75738916    -0.02900
C1073       C  0.76034188  0.04475520  0.76781258    -0.00400
C1074       C  0.79631711  0.03424658  0.77940477    -0.23200
C1075       C  0.75343404  0.47048661  0.79385563    -0.23400
C1076       C  0.71279035  0.45912114  0.76606671    -0.00500
H1077       H  0.83158375  0.05838692  0.78926432     0.13300
H1078       H  0.76872999  0.44725138  0.80236865     0.13400
N1079       N  0.99229203  0.22988909  0.75299075    -0.02900
C1080       C  0.52311455  0.25876414  0.72577344    -0.00400
C1081       C  0.02143338  0.30245667  0.72057710    -0.23200
C1082       C  0.97731385  0.29031808  0.73793657    -0.23400
C1083       C  0.95970469  0.24534617  0.75835945    -0.00500
H1084       H  0.52850062  0.32342607  0.68970206     0.13300
H1085       H  0.96075406  0.31317532  0.73844677     0.13400
N1086       N  0.79364459  0.30428466  0.73862658    -0.02900
C1087       C  0.78879522  0.26742990  0.76873773    -0.00400
C1088       C  0.74242579  0.23759578  0.77558241    -0.23200
C1089       C  0.71799161  0.25725671  0.75019031    -0.23400
C1090       C  0.75012313  0.29837310  0.72776255    -0.00500
H1091       H  0.72792078  0.20572885  0.79824124     0.13300
H1092       H  0.68062873  0.24349911  0.74923785     0.13400
C1093       C  0.50964603  0.12532499  0.80392595    -0.25800
C1094       C  0.99439289  0.10025886  0.76464333    -0.13900
C1095       C  0.96886703  0.10870482  0.72468946     0.36800
C1096       C  0.96471864  0.15010477  0.72474233    -0.25200
C1097       C  0.98739189  0.18414800  0.76214050    -0.14500
C1098       C  0.50437182  0.16646139  0.80258000     0.37900
N1099       N  0.51709840  0.19689723  0.84631549    -0.88700
H1100       H  0.52226269  0.11599666  0.83887457     0.19000
H1101       H  0.94659743  0.15741956  0.69328850     0.19000
N1102       N  0.95009026  0.07786758  0.68150189    -0.87800
H1103       H  0.55202435  0.20694815  0.85457387     0.36300
H1104       H  0.49754367  0.17772635  0.87786088     0.41400
H1105       H  0.92417805  0.04592341  0.69426129     0.41100
H1106       H  0.97665615  0.07247432  0.66447786     0.35900
C1107       C  0.62106918  0.02558221  0.71679634    -0.25800
C1108       C  0.59155718  0.00609534  0.75922158    -0.13900
C1109       C  0.60325790  0.51652750  0.77232270     0.36800
C1110       C  0.64289065  0.51093460  0.78338313    -0.25200
C1111       C  0.66786045  0.50270551  0.74376633    -0.14500
C1112       C  0.66275303  0.02220733  0.71254729     0.37900
N1113       N  0.69071855  0.04067741  0.66704473    -0.88700
H1114       H  0.61118271  0.04279026  0.68649804     0.19000
H1115       H  0.65444035  0.51302665  0.82315719     0.19000
N1116       N  0.57777203  0.52406122  0.81346765    -0.87800
H1117       H  0.67098587  0.02223442  0.63522523     0.36300
H1118       H  0.71975993  0.03433391  0.66777378     0.41400
H1119       H  0.60034507  0.55416635  0.83311492     0.41100
H1120       H  0.56746190  0.49592786  0.83924859     0.35900
C1121       C  0.90978540  0.38497848  0.68483397    -0.25800
C1122       C  0.91594809  0.42771405  0.70612012    -0.13900
C1123       C  0.88180456  0.42848070  0.74001051     0.36800
C1124       C  0.84141361  0.38739405  0.74899070    -0.25200
C1125       C  0.83552414  0.34518842  0.72771826    -0.14500
C1126       C  0.86994507  0.34347210  0.69583404     0.37900
N1127       N  0.86420507  0.29971472  0.67498313    -0.88700
H1128       H  0.93623687  0.38387644  0.66005480     0.19000
H1129       H  0.81478025  0.38770728  0.77422707     0.19000
N1130       N  0.88906773  0.47030524  0.76715953    -0.87800
H1131       H  0.89305149  0.30440296  0.65279366     0.36300
H1132       H  0.83579530  0.28767414  0.64983302     0.41400
H1133       H  0.91673351  0.47823446  0.79276973     0.41100
H1134       H  0.86021637  0.46492035  0.78969718     0.35900
C1135       C  0.59052736  0.09880631  0.93372350    -0.25800
C1136       C  0.57366563  0.06722460  0.97494247    -0.13900
C1137       C  0.60082447  0.07615960  0.52591198     0.36800
C1138       C  0.64279410  0.11678925  0.52498026    -0.25200
C1139       C  0.65872549  0.14604102  0.98439926    -0.14500
C1140       C  0.63286038  0.13869455  0.93811698     0.37900
N1141       N  0.64804219  0.17119194  0.89558366    -0.88700
H1142       H  0.57119722  0.09191589  0.89776474     0.19000
H1143       H  0.66673652  0.12503129  0.55720017     0.19000
N1144       N  0.58889212  0.04507759  0.56969183    -0.87800
H1145       H  0.65434863  0.15445403  0.86410262     0.36300
H1146       H  0.67912670  0.20041343  0.90391339     0.41400
H1147       H  0.55995820  0.04537499  0.58749940     0.41100
H1148       H  0.61566205  0.05734301  0.59695693     0.35900
C1149       C  0.52662438  0.37898140  0.95215401    -0.25800
C1150       C  0.50116093  0.39090706  0.98809130    -0.13900
C1151       C  0.98257284  0.36616335  0.02647264     0.36800
C1152       C  0.98853218  0.32593590  0.03459477    -0.25200
C1153       C  0.51268894  0.30965593  0.00221183    -0.14500
C1154       C  0.53217388  0.33825269  0.95860260     0.37900
N1155       N  0.55561491  0.32449389  0.92000985    -0.88700
H1156       H  0.54114175  0.40090469  0.91839471     0.19000
H1157       H  0.97172265  0.30329231  0.06720192     0.19000
N1158       N  0.95739268  0.37877815  0.06352305    -0.87800
H1159       H  0.56804632  0.34935514  0.89032376     0.36300
H1160       H  0.53125383  0.29362024  0.90306837     0.41400
H1161       H  0.98640897  0.41390921  0.58579849     0.41100
H1162       H  0.93300482  0.37948542  0.56147719     0.35900
C1163       C  0.84749926  0.00377167  0.95037051    -0.25800
C1164       C  0.81995864  0.98921413  0.49693885    -0.13900
C1165       C  0.86763428  0.52301084  0.50776692     0.36800
C1166       C  0.90770648  0.51969607  0.49320821    -0.25200
C1167       C  0.90603727  0.48535961  0.45832167    -0.14500
C1168       C  0.89006032  0.00336432  0.94075611     0.37900
N1169       N  0.91312878  0.02023546  0.89232540    -0.88700
H1170       H  0.83131946  0.01509714  0.92026915     0.19000
H1171       H  0.94029846  0.54361203  0.51064132     0.19000
N1172       N  0.87063594  0.55719518  0.54500433    -0.87800
H1173       H  0.91988169  0.05520056  0.88843899     0.36300
H1174       H  0.89028385  0.00151246  0.86272625     0.41400
H1175       H  0.89414608  0.59007504  0.53126693     0.41100
H1176       H  0.88371920  0.55051856  0.57940656     0.35900
O1177       O  0.92851548  0.75736277  0.41552225    -0.80400
O1178       O  0.79368841  0.61795629  0.26738060    -0.65100
O1179       O  0.83919570  0.70544102  0.37828986    -1.11700
C1180       C  0.78796943  0.56938743  0.47516758     1.06500
O1181       O  0.73150278  0.59689973  0.31367645    -0.78300
O1182       O  0.73012797  0.63409986  0.41078115    -0.65800
Ni1183     Ni  0.88522162  0.76660625  0.36922330     1.34900
C1184       C  0.75199227  0.65997729  0.44891690     0.85300
O1185       O  0.82509770  0.71441492  0.27135888    -0.78800
O1186       O  0.84270117  0.77645282  0.32271440    -0.89100
C1187       C  0.75367698  0.58597875  0.28007434     0.84800
O1188       O  0.91252396  0.75342244  0.30995212    -0.67300
O1189       O  0.75221235  0.56668142  0.45087415    -0.86600
C1190       C  0.91871963  0.71745801  0.30348660     0.85700
C1191       C  0.82220196  0.75188614  0.28287433     1.07200
H1192       H  0.82072141  0.59919198  0.36283117     0.39000
O1193       O  0.80629704  0.61876081  0.37160849    -1.09200
O1194       O  0.79083329  0.66288586  0.46355853    -0.65900
Ni1195     Ni  0.83980650  0.65815363  0.42509570     1.26300
O1196       O  0.88406454  0.67633429  0.30763014    -0.66100
O1197       O  0.82924363  0.60342172  0.46837133    -0.78400
C1198       C  0.92334289  0.73292704  0.45672540     0.85000
O1199       O  0.88355012  0.70223126  0.47234771    -0.65600
Ni1200     Ni  0.74158797  0.58344457  0.38317337     1.27400
Ni1201     Ni  0.81873179  0.66588424  0.31995627     1.26100
H1202       H  0.81305170  0.71079097  0.38713591     0.39600
C1203       C  0.49063878  0.93750532  0.48800864     0.03700
C1204       C  0.53065396  0.98013217  0.48623138    -0.12500
C1205       C  0.52909600  0.52106625  0.44103697     0.01200
C1206       C  0.98963300  0.52047669  0.95752099    -0.11000
C1207       C  0.95363657  0.98377751  0.97108423     0.03600
C1208       C  0.95545467  0.94120992  0.97861921    -0.10400
H1209       H  0.56449360  0.98108057  0.49042856     0.09200
H1210       H  0.98778121  0.55333427  0.95401554     0.06800
H1211       H  0.92332274  0.90953051  0.98233424     0.06600
N1212       N  0.77886071  0.48703443  0.00863653    -0.02900
C1213       C  0.74202288  0.95313645  0.02149012    -0.00400
C1214       C  0.71113008  0.96892181  0.03844558    -0.23200
C1215       C  0.72275386  0.50565237  0.03205844    -0.23400
C1216       C  0.77561129  0.53074341  0.51359634    -0.00500
H1217       H  0.67560614  0.94819652  0.05032469     0.13300
H1218       H  0.71539089  0.53777831  0.54486022     0.13400
N1219       N  0.69407300  0.68376197  0.49264624    -0.02900
C1220       C  0.70492813  0.72894289  0.01985514    -0.00400
C1221       C  0.75110168  0.76092648  0.01675474    -0.23200
C1222       C  0.76887699  0.73615670  0.49161210    -0.23400
C1223       C  0.73700535  0.69231216  0.47543885    -0.00500
H1224       H  0.76699827  0.79566624  0.03309477     0.13300
H1225       H  0.80585396  0.75264456  0.48451655     0.13400
N1226       N  0.50262811  0.76617315  0.50475064    -0.02900
C1227       C  0.96520949  0.73297239  0.48097690    -0.00400
C1228       C  0.46911154  0.68979723  0.48449908    -0.23200
C1229       C  0.51761402  0.70580762  0.99887112    -0.23400
C1230       C  0.53499985  0.75148277  0.01659333    -0.00500
H1231       H  0.95150670  0.66165453  0.45890286     0.13300
H1232       H  0.53387660  0.68281769  0.00260414     0.13400
O1233       O  0.57045693  0.74198234  0.18606948    -0.80400
O1234       O  0.69318824  0.87039037  0.01599550    -0.65100
O1235       O  0.65358808  0.79285374  0.13624802    -1.11700
C1236       C  0.71609057  0.93487734  0.22223505     1.06500
O1237       O  0.75646125  0.89322104  0.05864264    -0.78300
O1238       O  0.76326822  0.86270881  0.15467153    -0.65800
Ni1239     Ni  0.61044566  0.73074985  0.13738933     1.34900
C1240       C  0.74427751  0.83830014  0.19467648     0.85300
O1241       O  0.66597126  0.77554111  0.03119969    -0.78800
O1242       O  0.65034694  0.71784618  0.08898789    -0.89100
C1243       C  0.73313008  0.90322052  0.02600789     0.84800
O1244       O  0.57534160  0.73636251  0.08134814    -0.67300
O1245       O  0.74846007  0.93562402  0.19334083    -0.86600
C1246       C  0.57436295  0.76922114  0.05437054     0.85700
C1247       C  0.66999026  0.73966012  0.04708710     1.07200
H1248       H  0.67115376  0.89726857  0.11172819     0.39000
O1249       O  0.68608506  0.87825105  0.12136294    -1.09200
O1250       O  0.70923657  0.83953407  0.21519090    -0.65900
Ni1251     Ni  0.65763769  0.84321451  0.18080353     1.26300
O1252       O  0.60671205  0.81173597  0.05675312    -0.66300
O1253       O  0.67387344  0.90130779  0.22081304    -0.78400
C1254       C  0.57902758  0.76702425  0.22699261     0.85000
O1255       O  0.61841398  0.80268793  0.23475279    -0.65600
Ni1256     Ni  0.75206355  0.91303272  0.12648182     1.27400
Ni1257     Ni  0.67185950  0.82713082  0.07393642     1.26100
H1258       H  0.68056905  0.78823123  0.14275125     0.39600
C1259       C  0.99217534  0.55401053  0.18301232     0.03700
C1260       C  0.53956829  0.55479571  0.19208613    -0.12500
C1261       C  0.54161010  0.51198293  0.18936606     0.01200
C1262       C  0.00394439  0.97406636  0.25298382    -0.11000
C1263       C  0.96096441  0.97412424  0.25645701     0.03600
C1264       C  0.95317018  0.51118925  0.17610460    -0.10400
H1265       H  0.57061407  0.58636914  0.20118982     0.09200
H1266       H  0.00581360  0.94145440  0.24715156     0.06800
H1267       H  0.91895616  0.50979481  0.17677974     0.06600
N1268       N  0.72366637  0.01288867  0.25307536    -0.02900
C1269       C  0.74354480  0.53575103  0.27545644    -0.00400
C1270       C  0.76986224  0.51730135  0.29946281    -0.23200
C1271       C  0.77940176  0.99341693  0.27496139    -0.23400
C1272       C  0.73369469  0.97599564  0.25794505    -0.00500
H1273       H  0.80301765  0.53589145  0.31819847     0.13300
H1274       H  0.79939724  0.97395661  0.27844846     0.13400
N1275       N  0.99177346  0.71891624  0.25853429    -0.02900
C1276       C  0.54108945  0.75653572  0.26600357    -0.00400
C1277       C  0.04381290  0.78087017  0.30298163    -0.23200
C1278       C  0.00140894  0.76698107  0.32526801    -0.23400
C1279       C  0.96931753  0.72888772  0.29809941    -0.00500
H1280       H  0.57798450  0.81585663  0.31856902     0.13300
H1281       H  0.99425268  0.78579296  0.35566084     0.13400
N1282       N  0.79533723  0.80659569  0.23767941    -0.02900
C1283       C  0.79012014  0.76360201  0.25140439    -0.00400
C1284       C  0.74711266  0.73034834  0.23537949    -0.23200
C1285       C  0.72533176  0.75391373  0.21192263    -0.23400
C1286       C  0.75616895  0.80091755  0.21291560    -0.00500
H1287       H  0.73233114  0.69307707  0.24194378     0.13300
H1288       H  0.69035276  0.73806543  0.19691162     0.13400
C1289       C  0.49299648  0.60462204  0.25977508    -0.25800
C1290       C  0.98498706  0.59417985  0.19970395    -0.13900
C1291       C  0.98432333  0.62791839  0.16489225     0.36800
C1292       C  0.97960273  0.66647638  0.18423905    -0.25200
C1293       C  0.97820875  0.67297592  0.23794203    -0.14500
C1294       C  0.49025192  0.64377123  0.27950929     0.37900
N1295       N  0.49450492  0.65216470  0.33416699    -0.88700
H1296       H  0.49683980  0.58023698  0.28629756     0.19000
H1297       H  0.98160175  0.69365847  0.15778373     0.19000
N1298       N  0.99071334  0.62497419  0.11042887    -0.87800
H1299       H  0.52621644  0.65401410  0.34634775     0.36300
H1300       H  0.46799875  0.62363014  0.35265286     0.41400
H1301       H  0.96474815  0.59324412  0.09724802     0.41100
H1302       H  0.02271179  0.62480683  0.10471253     0.35900
C1303       C  0.60872302  0.49592831  0.17009662    -0.25800
C1304       C  0.58386880  0.50890235  0.20561281    -0.13900
C1305       C  0.60791280  0.98962614  0.30260845     0.36800
C1306       C  0.64995457  0.98796772  0.29622120    -0.25200
C1307       C  0.67801560  0.00917823  0.25337470    -0.14500
C1308       C  0.65057399  0.49594894  0.18434849     0.37900
N1309       N  0.67814318  0.48952143  0.14473086    -0.88700
H1310       H  0.59641143  0.48705848  0.13075264     0.19000
H1311       H  0.66166514  0.97148039  0.32568567     0.19000
N1312       N  0.57984625  0.96832570  0.34714624    -0.87800
H1313       H  0.66057083  0.45492146  0.13263853     0.36300
H1314       H  0.71059358  0.49504736  0.15863421     0.41400
H1315       H  0.59950870  0.98347239  0.38024477     0.41100
H1316       H  0.57183855  0.93289309  0.34715300     0.35900
C1317       C  0.90510387  0.90981017  0.20359868    -0.25800
C1318       C  0.91876905  0.93057697  0.25227455    -0.13900
C1319       C  0.89173034  0.91035177  0.29650314     0.36800
C1320       C  0.85002139  0.86987158  0.29094793    -0.25200
C1321       C  0.83640177  0.84922017  0.24236203    -0.14500
C1322       C  0.86375360  0.86902999  0.19850020     0.37900
N1323       N  0.84962014  0.84687168  0.14920047    -0.88700
H1324       H  0.92628495  0.92548484  0.16973208     0.19000
H1325       H  0.82836913  0.85389166  0.32434676     0.19000
N1326       N  0.90716741  0.93078919  0.34663263    -0.87800
H1327       H  0.87423801  0.83619133  0.13739737     0.36300
H1328       H  0.84930992  0.87142546  0.12258264     0.41400
H1329       H  0.93785979  0.92869924  0.35529314     0.41100
H1330       H  0.88314581  0.91158477  0.37514145     0.35900
C1331       C  0.58567525  0.60350964  0.42411408    -0.25800
C1332       C  0.57163191  0.56315308  0.45446250    -0.13900
C1333       C  0.60069917  0.57528745  0.02797871     0.36800
C1334       C  0.64037859  0.61784519  0.03235579    -0.25200
C1335       C  0.65178956  0.64381169  0.48066318    -0.14500
C1336       C  0.62600032  0.64359941  0.43648431     0.37900
N1337       N  0.64094547  0.68342297  0.40306033    -0.88700
H1338       H  0.56582353  0.60344609  0.39015189     0.19000
H1339       H  0.65938602  0.62758814  0.06854817     0.19000
N1340       N  0.58337319  0.54495911  0.07196106    -0.87800
H1341       H  0.67399472  0.69094327  0.38925216     0.36300
H1342       H  0.64342251  0.71182128  0.42490565     0.41400
H1343       H  0.55025005  0.54146904  0.08008793     0.41100
H1344       H  0.60373574  0.56087006  0.10434274     0.35900
C1345       C  0.53194970  0.88872805  0.47097947    -0.25800
C1346       C  0.49574201  0.89397313  0.49599749    -0.13900
C1347       C  0.97173205  0.86594326  0.53118987     0.36800
C1348       C  0.97509140  0.82407222  0.53690546    -0.25200
C1349       C  0.50736439  0.81248642  0.51009881    -0.14500
C1350       C  0.53859340  0.84870416  0.47861031     0.37900
N1351       N  0.57615063  0.84418232  0.45371507    -0.88700
H1352       H  0.55472963  0.91552614  0.44471027     0.19000
H1353       H  0.95180516  0.79739859  0.56306576     0.19000
N1354       N  0.94053504  0.87478827  0.56332749    -0.87800
H1355       H  0.59634311  0.87419067  0.43221043     0.36300
H1356       H  0.56203369  0.81661038  0.42747818     0.41400
H1357       H  0.94765127  0.86954756  0.09872623     0.41100
H1358       H  0.90659557  0.84447828  0.05231703     0.35900
C1359       C  0.82218013  0.45644154  0.45362239    -0.25800
C1360       C  0.82224410  0.48871118  0.99284969    -0.13900
C1361       C  0.84831840  0.97780268  0.03882115     0.36800
C1362       C  0.88880494  0.97385135  0.02787051    -0.25200
C1363       C  0.90967637  0.98622623  0.97903934    -0.14500
C1364       C  0.86248385  0.45296311  0.43895719     0.37900
N1365       N  0.85885992  0.41679253  0.40424775    -0.88700
H1366       H  0.78894983  0.43163442  0.43838731     0.19000
H1367       H  0.90530956  0.96299886  0.05813309     0.19000
N1368       N  0.83054270  0.97105489  0.09076295    -0.87800
H1369       H  0.84264586  0.42008729  0.37046079     0.36300
H1370       H  0.83725983  0.38468828  0.42134159     0.41400
H1371       H  0.83282424  0.00288879  0.10362384     0.41100
H1372       H  0.85098485  0.96220465  0.11571537     0.35900
O1373       O  0.92769615  0.75303042  0.92251128    -0.80400
O1374       O  0.79719743  0.61769977  0.77135625    -0.65100
O1375       O  0.83950843  0.70213565  0.88442289    -1.11700
C1376       C  0.78340468  0.56497108  0.97821484     1.06500
O1377       O  0.73355434  0.59598472  0.81530853    -0.78300
O1378       O  0.73212766  0.63596188  0.91240166    -0.65800
Ni1379     Ni  0.88461982  0.76343898  0.87721158     1.34900
C1380       C  0.75304709  0.66020526  0.95216394     0.85300
O1381       O  0.82801406  0.71362659  0.77760725    -0.78800
O1382       O  0.84210609  0.77366957  0.83086024    -0.89100
C1383       C  0.75704446  0.58547666  0.78278003     0.84800
O1384       O  0.91189697  0.75178636  0.81737382    -0.67300
O1385       O  0.74906791  0.56653157  0.95491417    -0.86600
C1386       C  0.91981132  0.71697249  0.81043914     0.85700
C1387       C  0.82355738  0.75016762  0.78967729     1.07200
H1388       H  0.81954013  0.59536452  0.86757815     0.39000
O1389       O  0.80595822  0.61582640  0.87608319    -1.09200
O1390       O  0.78990758  0.65971667  0.96894914    -0.65900
Ni1391     Ni  0.83863008  0.65378636  0.93069435     1.26300
O1392       O  0.88623351  0.67519123  0.81431475    -0.66100
O1393       O  0.82571503  0.59749234  0.97270126    -0.78400
C1394       C  0.92240744  0.72747841  0.96283035     0.85000
O1395       O  0.88264539  0.69660443  0.97845940    -0.65600
Ni1396     Ni  0.74096886  0.58295620  0.88612540     1.27400
Ni1397     Ni  0.82049954  0.66409434  0.82521004     1.26100
H1398       H  0.81327794  0.70744200  0.89206883     0.39600
C1399       C  0.49597617  0.93932484  0.98016058     0.03700
C1400       C  0.53568100  0.98169728  0.97581133    -0.12500
C1401       C  0.53560695  0.51896433  0.97474414     0.01200
C1402       C  0.99095044  0.52579740  0.44003827    -0.11000
C1403       C  0.94958435  0.98595157  0.47533208     0.03600
C1404       C  0.95210194  0.94349372  0.48095332    -0.10400
H1405       H  0.56953589  0.98298701  0.98177727     0.09200
H1406       H  0.98891045  0.55863217  0.43819697     0.06800
H1407       H  0.92034624  0.91121862  0.48294978     0.06600
N1408       N  0.78262925  0.49205735  0.50619614    -0.02900
C1409       C  0.73560792  0.94587126  0.51736091    -0.00400
C1410       C  0.70056846  0.95741098  0.52975927    -0.23200
C1411       C  0.73312099  0.51649338  0.53815236    -0.23400
C1412       C  0.76796057  0.52349605  0.01345094    -0.00500
H1413       H  0.66539161  0.93383798  0.54068844     0.13300
H1414       H  0.70222485  0.52452727  0.03582097     0.13400
N1415       N  0.69860073  0.68921344  0.99492283    -0.02900
C1416       C  0.69915246  0.72197196  0.52011102    -0.00400
C1417       C  0.74498684  0.75493687  0.51920567    -0.23200
C1418       C  0.77359904  0.73965300  0.99037629    -0.23400
C1419       C  0.74051797  0.69543437  0.97676011    -0.00500
H1420       H  0.75963029  0.78893508  0.53735672     0.13300
H1421       H  0.81042196  0.75470052  0.98259641     0.13400
N1422       N  0.50321137  0.76746897  0.00662629    -0.02900
C1423       C  0.96435244  0.72760627  0.98648784    -0.00400
C1424       C  0.47435303  0.69347086  0.97871955    -0.23200
C1425       C  0.51106616  0.70059396  0.50693616    -0.23400
C1426       C  0.53134673  0.74768262  0.52033119    -0.00500
H1427       H  0.95023090  0.65571414  0.96635494     0.13300
H1428       H  0.52437034  0.67566690  0.51521907     0.13400
O1429       O  0.56872034  0.73787545  0.68830095    -0.80400
O1430       O  0.69111060  0.86281268  0.51589842    -0.65100
O1431       O  0.65207897  0.78650709  0.63716642    -1.11700
C1432       C  0.71587806  0.92802368  0.72308833     1.06500
O1433       O  0.75614937  0.89020988  0.55682293    -0.78300
O1434       O  0.76292764  0.85667671  0.65270437    -0.65800
Ni1435     Ni  0.60707436  0.72493595  0.63901058     1.34900
C1436       C  0.74512699  0.83290104  0.69356344     0.85300
O1437       O  0.66004415  0.76774337  0.53163284    -0.78800
O1438       O  0.64490386  0.71026401  0.58945935    -0.89100
C1439       C  0.73044368  0.89735359  0.52445076     0.84800
O1440       O  0.57201856  0.73238572  0.58432092    -0.67300
O1441       O  0.74825228  0.92839944  0.69438469    -0.86600
C1442       C  0.57144350  0.76542799  0.55734312     0.85700
C1443       C  0.66367304  0.73160749  0.54704485     1.07200
H1444       H  0.67088431  0.89148355  0.61183977     0.39000
O1445       O  0.68567966  0.87224713  0.62138785    -1.09200
O1446       O  0.70983851  0.83349128  0.71449733    -0.65900
Ni1447     Ni  0.65759962  0.83741610  0.68127059     1.26300
O1448       O  0.60483997  0.80742424  0.55874068    -0.66300
O1449       O  0.67364650  0.89507263  0.72107674    -0.78400
C1450       C  0.57848445  0.76430257  0.72812178     0.85000
O1451       O  0.61916985  0.79776508  0.73582327    -0.65600
Ni1452     Ni  0.75156654  0.90757305  0.62615421     1.27400
Ni1453     Ni  0.66972984  0.82042463  0.57440825     1.26100
H1454       H  0.67864081  0.78125619  0.64362981     0.39600
C1455       C  0.99973900  0.55518249  0.69661409     0.03700
C1456       C  0.54175166  0.55790026  0.70848709    -0.12500
C1457       C  0.54454685  0.51548702  0.70868859     0.01200
C1458       C  0.00444301  0.97219744  0.76575115    -0.11000
C1459       C  0.96147885  0.97234489  0.76873735     0.03600
C1460       C  0.95919445  0.51371687  0.68992949    -0.10400
H1461       H  0.57219577  0.59010233  0.71735087     0.09200
H1462       H  0.00619348  0.93924062  0.76350375     0.06800
H1463       H  0.92647606  0.51525422  0.68572221     0.06600
N1464       N  0.72176396  0.00469944  0.75607278    -0.02900
C1465       C  0.74785160  0.53554678  0.77760234    -0.00400
C1466       C  0.77595659  0.51814181  0.79940367    -0.23200
C1467       C  0.77900546  0.98662605  0.77555454    -0.23400
C1468       C  0.73301616  0.96853801  0.75938705    -0.00500
H1469       H  0.80977873  0.53750492  0.81650809     0.13300
H1470       H  0.79973817  0.96784370  0.77781614     0.13400
N1471       N  0.99281087  0.72003883  0.76414684    -0.02900
C1472       C  0.54057654  0.75921056  0.76475378    -0.00400
C1473       C  0.04298178  0.78872249  0.79916179    -0.23200
C1474       C  0.00176549  0.77353805  0.82448194    -0.23400
C1475       C  0.97072645  0.73118946  0.80302092    -0.00500
H1476       H  0.57653246  0.82684354  0.80468277     0.13300
H1477       H  0.99408475  0.79368274  0.85304259     0.13400
N1478       N  0.79663945  0.80422152  0.74218909    -0.02900
C1479       C  0.79194798  0.76149981  0.75679815    -0.00400
C1480       C  0.75095857  0.72729264  0.73729283    -0.23200
C1481       C  0.72978710  0.74966234  0.71043750    -0.23400
C1482       C  0.75892169  0.79705355  0.71300619    -0.00500
H1483       H  0.73721214  0.69000682  0.74321040     0.13300
H1484       H  0.69617831  0.73272640  0.69209245     0.13400
C1485       C  0.49399716  0.60851094  0.76897782    -0.25800
C1486       C  0.99504549  0.59695532  0.71240620    -0.13900
C1487       C  0.98349997  0.62398390  0.67732502     0.36800
C1488       C  0.97667505  0.66156106  0.69591104    -0.25200
C1489       C  0.98324107  0.67368308  0.74861620    -0.14500
C1490       C  0.48990428  0.64760839  0.78661890     0.37900
N1491       N  0.49520106  0.65884518  0.84062665    -0.88700
H1492       H  0.50016332  0.58637627  0.79670252     0.19000
H1493       H  0.97038252  0.68391432  0.66868172     0.19000
N1494       N  0.98151023  0.61579512  0.62268903    -0.87800
H1495       H  0.52756049  0.66228623  0.85261580     0.36300
H1496       H  0.46968615  0.63083034  0.86087988     0.41400
H1497       H  0.95721473  0.58138466  0.61579096     0.41100
H1498       H  0.01390517  0.61936352  0.61082330     0.35900
C1499       C  0.61203317  0.50377539  0.68137957    -0.25800
C1500       C  0.58815495  0.51362346  0.72086056    -0.13900
C1501       C  0.60365869  0.98250368  0.79787314     0.36800
C1502       C  0.64585473  0.98026313  0.79464219    -0.25200
C1503       C  0.67586371  0.00064526  0.75289248    -0.14500
C1504       C  0.65215765  0.49882417  0.69210228     0.37900
N1505       N  0.67579219  0.49008930  0.64981285    -0.88700
H1506       H  0.59910493  0.49951000  0.64213469     0.19000
H1507       H  0.65613091  0.96401967  0.82572688     0.19000
N1508       N  0.57359795  0.96179426  0.84104045    -0.87800
H1509       H  0.65406919  0.45660331  0.63641087     0.36300
H1510       H  0.70678055  0.49022611  0.66163318     0.41400
H1511       H  0.59203445  0.97688348  0.87485443     0.41100
H1512       H  0.56505446  0.92623915  0.84145486     0.35900
C1513       C  0.90575532  0.91073984  0.71372727    -0.25800
C1514       C  0.91924783  0.92880677  0.76348805    -0.13900
C1515       C  0.89188495  0.90621303  0.80673497     0.36800
C1516       C  0.85021819  0.86581419  0.79903091    -0.25200
C1517       C  0.83687201  0.84760686  0.74917419    -0.14500
C1518       C  0.86466988  0.87016887  0.70636740     0.37900
N1519       N  0.85168791  0.85086089  0.65565255    -0.88700
H1520       H  0.92713522  0.92830072  0.68057916     0.19000
H1521       H  0.82835948  0.84810246  0.83172051     0.19000
N1522       N  0.90673643  0.92423178  0.85788358    -0.87800
H1523       H  0.87696935  0.84151251  0.64280122     0.36300
H1524       H  0.85158371  0.87680510  0.63099971     0.41400
H1525       H  0.93751147  0.92201538  0.86566651     0.41100
H1526       H  0.88255866  0.90340349  0.88545498     0.35900
C1527       C  0.59232235  0.59399739  0.93834248    -0.25800
C1528       C  0.57748218  0.56293284  0.98013730    -0.13900
C1529       C  0.59758513  0.56338448  0.49887512     0.36800
C1530       C  0.63762330  0.60393613  0.51144387    -0.25200
C1531       C  0.65629942  0.64795446  0.98995761    -0.14500
C1532       C  0.63199679  0.63645829  0.94253250     0.37900
N1533       N  0.64630379  0.66713163  0.89839366    -0.88700
H1534       H  0.57297445  0.58512005  0.90237056     0.19000
H1535       H  0.65810877  0.60459490  0.54503713     0.19000
N1536       N  0.58314973  0.52247329  0.53094590    -0.87800
H1537       H  0.65563003  0.65050693  0.86915225     0.36300
H1538       H  0.67555274  0.69830481  0.90651874     0.41400
H1539       H  0.55203968  0.51683000  0.54886427     0.41100
H1540       H  0.60738264  0.52802984  0.56026628     0.35900
C1541       C  0.53151182  0.88670955  0.96134057    -0.25800
C1542       C  0.50130385  0.89685890  0.99183527    -0.13900
C1543       C  0.97204330  0.86234998  0.02937441     0.36800
C1544       C  0.97482321  0.82029888  0.03614650    -0.25200
C1545       C  0.50975477  0.81446320  0.00818902    -0.14500
C1546       C  0.53603298  0.84574561  0.96916413     0.37900
N1547       N  0.56585158  0.83479601  0.93657901    -0.88700
H1548       H  0.55064632  0.91018891  0.93049033     0.19000
H1549       H  0.95078217  0.79387082  0.06201266     0.19000
N1550       N  0.93978889  0.87114614  0.05969502    -0.87800
H1551       H  0.58120771  0.86050114  0.90814971     0.36300
H1552       H  0.54548436  0.80372420  0.91724008     0.41400
H1553       H  0.94989939  0.87355804  0.60188617     0.41100
H1554       H  0.90716233  0.84798573  0.55732290     0.35900
C1555       C  0.82262791  0.45575568  0.95734540    -0.25800
C1556       C  0.82442681  0.49139652  0.48781573    -0.13900
C1557       C  0.84315767  0.98104619  0.53899716     0.36800
C1558       C  0.88440652  0.97793203  0.53022548    -0.25200
C1559       C  0.90507114  0.98759549  0.48119864    -0.14500
C1560       C  0.86341500  0.45165354  0.94746643     0.37900
N1561       N  0.86265038  0.41734674  0.91163243    -0.88700
H1562       H  0.79078515  0.43239625  0.93812733     0.19000
H1563       H  0.90143294  0.96960095  0.56206636     0.19000
N1564       N  0.82497287  0.97696762  0.59050321    -0.87800
H1565       H  0.85102665  0.42349396  0.87591701     0.36300
H1566       H  0.83847370  0.38455373  0.92487586     0.41400
H1567       H  0.82554741  0.00893124  0.59987574     0.41100
H1568       H  0.84639521  0.97146570  0.61731699     0.35900
loop_ 
_geom_bond_atom_site_label_1 
_geom_bond_atom_site_label_2 
_geom_bond_distance 
_geom_bond_site_symmetry_2 
_ccdc_geom_bond_type 
O1           Ni7   1.953       .  S
O1           C22   1.283       .  A
O2          Ni25   1.931       .  S
O2           C11   1.273       .  A
O3           Ni7   1.864       .  S
O3          Ni25   1.887       .  S
O3          Ni19   1.936       .  S
O3           H26   0.959       .  S
C4           O21   1.298       .  A
C4           O13   1.279       .  A
C4           C40   1.498       .  S
O5          Ni24   1.905       .  S
O5           C11   1.270       .  A
O6          Ni24   1.959       .  S
O6            C8   1.279       .  A
Ni7          O10   1.964       .  S
Ni7          O12   1.898       .  S
C8           O18   1.268       .  A
C8           C47   1.494       .  S
O9          Ni25   1.930       .  S
O9           C15   1.279       .  A
O10          C15   1.287       .  A
C11          C93   1.498       .  S
O12          C14   1.272       .  A
O13         Ni24   1.911       .  S
C14          O20   1.289       .  A
C14         C103   1.488       .  S
C15         C107   1.488       .  S
H16          O17   0.964       .  S
O17         Ni25   1.932       .  S
O17         Ni19   1.874       .  S
O17         Ni24   1.912       .  S
O18         Ni19   1.933       .  S
Ni19         O23   1.913       .  S
Ni19         O21   1.975       .  S
O20         Ni25   1.971       .  S
C22          O23   1.282       .  A
C22          C51   1.492       .  S
C27         C170   1.479   1_655  S
C27          C28   1.400   1_655  A
C27        C1012   1.408       .  A
C28         C421   1.400       .  A
C28          H33   1.084       .  S
C29         C156   1.461       .  S
C29         C420   1.396   1_545  A
C29        C1010   1.396   1_455  A
C30        C1009   1.395       .  A
C30         C423   1.398   1_545  A
C30          H34   1.085       .  S
C31         C187   1.476       .  S
C31          C32   1.409       .  A
C31         C422   1.397       .  A
C32        C1007   1.411       .  A
C32          H35   1.084       .  S
N36         C184   1.430   1_554  S
N36         C236   1.361   1_565  A
N36         C429   1.364       .  A
C37          C67   1.488       .  S
C37          C38   1.374       .  A
C37         N428   1.363       .  A
C38         C431   1.369       .  A
C38          H41   1.079       .  S
C39         C430   1.376   1_545  A
C39         C236   1.392       .  A
C39         H238   1.083       .  S
C40         C235   1.392       .  A
C40         N232   1.366   1_545  A
H42         C235   1.083       .  S
N43         C159   1.414       .  S
N43          C47   1.353       .  A
N43         C240   1.353       .  A
C44          C71   1.482       .  S
C44          C45   1.380       .  A
C44         N239   1.356   1_554  A
C45         C242   1.376   1_554  A
C45          H48   1.081       .  S
C46          C47   1.386       .  A
C46         C241   1.383       .  A
C46          H49   1.082       .  S
N50         C173   1.436   1_655  S
N50         C250   1.368   1_655  A
N50         C835   1.374       .  A
C51         C836   1.373       .  A
C51         N834   1.373       .  A
C52         C835   1.373       .  A
C52         C249   1.365       .  A
C52         H839   1.082       .  S
C53          C54   1.394   1_556  A
C53         C248   1.370   1_455  A
C53          H56   1.083       .  S
C54          C70   1.500       .  S
C54         N246   1.363       .  A
H55         C836   1.083       .  S
O57         Ni63   1.958       .  S
O57          C78   1.282       .  A
O58         Ni81   1.933       .  S
O58          C67   1.275       .  A
O59         Ni63   1.861       .  S
O59         Ni81   1.892       .  S
O59         Ni75   1.931       .  S
O59          H82   0.960       .  S
C60          O77   1.293       .  A
C60          O69   1.281       .  A
C60          C96   1.476       .  S
O61         Ni80   1.905       .  S
O61          C67   1.268       .  A
O62         Ni80   1.956       .  S
O62          C64   1.276       .  A
Ni63         O66   1.966       .  S
Ni63         O68   1.887       .  S
C64          O74   1.265       .  A
C64         C110   1.497       .  S
O65         Ni81   1.917       .  S
O65          C71   1.275       .  A
O66          C71   1.290       .  A
O68          C70   1.271       .  A
O69         Ni80   1.914       .  S
C70          O76   1.294       .  A
H72          O73   0.963       .  S
O73         Ni81   1.925       .  S
O73         Ni75   1.872       .  S
O73         Ni80   1.913       .  S
O74         Ni75   1.924       .  S
Ni75         O79   1.906       .  S
Ni75         O77   1.949       .  S
O76         Ni81   1.986       .  S
C78          O79   1.275       .  A
C78         C100   1.483       .  S
C83         C114   1.482       .  S
C83          C88   1.401       .  A
C83         C868   1.406       .  A
C84          C85   1.404       .  A
C84         C867   1.404   1_455  A
C84          H89   1.084       .  S
C85         C128   1.466       .  S
C85        C1262   1.397   1_545  A
C86          C87   1.397       .  A
C86        C1261   1.395       .  A
C86          H90   1.085       .  S
C87         C142   1.459       .  S
C87         C480   1.398       .  A
C88         C479   1.396   1_545  A
C88          H91   1.081       .  S
N92         C131   1.432       .  S
N92          C96   1.362       .  A
N92         C485   1.360       .  A
C93          C94   1.376       .  A
C93         N484   1.364       .  A
C94         C487   1.374   1_545  A
C94          H97   1.081       .  S
C95          C96   1.385       .  A
C95         C486   1.372       .  A
C95          H98   1.083       .  S
N99         C117   1.432       .  S
N99         C103   1.364       .  A
N99         C884   1.363       .  A
C100        C885   1.374       .  A
C100        N883   1.364   1_455  A
C101        C102   1.370       .  A
C101        C884   1.376       .  A
C101        H888   1.083       .  S
C102        C103   1.388       .  A
C102        H105   1.083       .  S
H104        C885   1.083       .  S
N106        C145   1.422       .  S
N106        C110   1.359       .  A
N106        C107   1.360       .  A
C107        C108   1.381       .  A
C108        C109   1.376       .  A
C108        H111   1.083       .  S
C109        C110   1.385       .  A
C109        H112   1.083       .  S
C113        C118   1.403   1_455  A
C113        C898   1.402   1_455  A
C113        H120   1.083       .  S
C114        C115   1.420       .  A
C114        C897   1.407       .  A
C115        C116   1.393       .  A
C115        N122   1.435       .  S
C116        C117   1.396       .  A
C116        H121   1.084       .  S
C117        C902   1.405       .  A
C118        C901   1.405       .  A
C118        N119   1.431   1_655  S
N119        H123   1.046       .  S
N119        H124   1.045   1_455  S
N122        H125   1.042       .  S
N122        H126   1.046       .  S
C127        C128   1.400       .  A
C127        C132   1.401       .  A
C127        H134   1.082       .  S
C128        C521   1.405   1_545  A
C129        C130   1.399       .  A
C129        C520   1.407       .  A
C129        N136   1.433       .  S
C130        C131   1.400       .  A
C130        H135   1.084       .  S
C131        C524   1.411       .  A
C132        C523   1.416       .  A
C132        N133   1.438       .  S
N133        H137   1.046       .  S
N133        H138   1.044       .  S
N136        H139   1.045       .  S
N136        H140   1.046       .  S
C141        C142   1.397       .  A
C141        C146   1.401       .  A
C141        H148   1.082       .  S
C142        C143   1.410       .  A
C143        C144   1.396       .  A
C143        N150   1.439       .  S
C144        C145   1.394       .  A
C144        H149   1.082       .  S
C145        C146   1.407       .  A
C146        N147   1.438       .  S
N147        H151   1.045       .  S
N147        H152   1.043       .  S
N150        H153   1.046       .  S
N150        H154   1.044       .  S
C155        C156   1.400       .  A
C155        C160   1.388       .  A
C155        H162   1.084       .  S
C156        C353   1.414       .  A
C157        C158   1.393       .  A
C157        C352   1.409   1_554  A
C157        N164   1.438       .  S
C158        C355   1.393   1_554  A
C158        H163   1.084       .  S
C159        C160   1.405       .  A
C159        C354   1.393       .  A
C160        N161   1.432       .  S
N161        H165   1.045       .  S
N161        H166   1.045       .  S
N164        H167   1.046       .  S
N164        H168   1.044       .  S
C169        C170   1.408       .  A
C169        C174   1.414       .  A
C169        H176   1.084       .  S
C170        C955   1.406   1_455  A
C171        C172   1.392       .  A
C171        C954   1.406       .  A
C171        N178   1.433       .  S
C172        C957   1.400       .  A
C172        H177   1.084       .  S
C173        C174   1.409       .  A
C173        C956   1.401   1_455  A
C174        N175   1.437       .  S
N175        H179   1.046       .  S
N175        H180   1.045       .  S
N178        H377   1.046       .  S
N178        H378   1.046       .  S
H181        N374   1.045       .  S
H182        N374   1.045       .  S
C183        C188   1.402       .  A
C183        C380   1.396       .  A
C183        H190   1.084   1_565  S
C184        C379   1.400   1_565  A
C184        C577   1.407   1_556  A
C185        C186   1.397       .  A
C185        C576   1.403   1_554  A
C185        N192   1.432       .  S
C186        C187   1.405   1_554  A
C186        H191   1.083       .  S
C187        C776   1.406       .  A
C188        C775   1.409       .  A
C188        N189   1.429       .  S
N189        H193   1.045   1_565  S
N189        H194   1.046       .  S
N192        H195   1.045       .  S
N192        H196   1.046       .  S
O197       Ni203   1.945       .  S
O197        C218   1.281       .  A
O198       Ni221   1.920       .  S
O198        C207   1.270       .  A
O199       Ni203   1.861       .  S
O199       Ni221   1.886       .  S
O199       Ni215   1.942       .  S
O199        H222   0.960       .  S
C200        O217   1.298       .  A
C200        O209   1.278       .  A
C200        C236   1.486   1_556  S
O201       Ni220   1.907       .  S
O201        C207   1.273       .  A
O202       Ni220   1.961       .  S
O202        C204   1.280       .  A
Ni203       O206   1.971       .  S
Ni203       O208   1.888       .  S
C204        O214   1.265       .  A
C204        C243   1.489       .  S
O205       Ni221   1.919       .  S
O205        C211   1.275       .  A
O206        C211   1.289       .  A
C207        C289   1.490       .  S
O208        C210   1.271       .  A
O209       Ni220   1.903       .  S
C210        O216   1.290       .  A
C210        C299   1.488       .  S
C211        C303   1.488       .  S
H212        O213   0.963       .  S
O213       Ni221   1.929       .  S
O213       Ni215   1.866       .  S
O213       Ni220   1.907       .  S
O214       Ni215   1.921       .  S
Ni215       O219   1.908       .  S
Ni215       O217   1.967       .  S
O216       Ni221   1.972       .  S
C218        O219   1.278       .  A
C218        C247   1.475       .  S
C223        C366   1.483   1_655  S
C223        C224   1.400   1_655  A
C223        C816   1.411       .  A
C224        C617   1.396       .  A
C224        H229   1.085       .  S
C225        C352   1.462       .  S
C225        C616   1.397   1_545  A
C225        C814   1.396   1_455  A
C226        C813   1.395       .  A
C226        C619   1.396   1_545  A
C226        H230   1.085       .  S
C227        C383   1.491       .  S
C227        C618   1.406       .  A
C227        C228   1.410       .  A
C228        C811   1.411       .  A
C228        H231   1.083       .  S
N232        C380   1.428       .  S
N232        C625   1.364       .  A
C233        C263   1.482       .  S
C233        C234   1.377       .  A
C233        N624   1.361       .  A
C234        C627   1.369       .  A
C234        H237   1.080       .  S
C235        C626   1.378   1_545  A
N239        C355   1.419       .  S
N239        C243   1.355       .  A
C240        C267   1.488       .  S
C240        C241   1.382       .  A
C241        H244   1.083       .  S
C242        C243   1.386       .  A
C242        H245   1.083       .  S
N246        C369   1.430   1_554  S
N246       C1031   1.364   1_454  A
C247       C1032   1.372       .  A
C247       N1030   1.361   1_556  A
C248       C1031   1.374       .  A
C248       H1035   1.083       .  S
C249        C250   1.393   1_655  A
C249        H252   1.079       .  S
C250        C266   1.507       .  S
H251       C1032   1.083       .  S
O253       Ni259   1.949       .  S
O253        C274   1.282       .  A
O254       Ni277   1.918       .  S
O254        C263   1.276       .  A
O255       Ni259   1.867       .  S
O255       Ni277   1.881       .  S
O255       Ni271   1.942       .  S
O255        H278   0.960       .  S
C256        O273   1.298       .  A
C256        O265   1.282       .  A
C256        C292   1.485       .  S
O257       Ni276   1.914       .  S
O257        C263   1.275       .  A
O258       Ni276   1.962       .  S
O258        C260   1.279       .  A
Ni259       O262   1.956       .  S
Ni259       O264   1.906       .  S
C260        O270   1.268       .  A
C260        C306   1.495       .  S
O261       Ni277   1.926       .  S
O261        C267   1.279       .  A
O262        C267   1.287       .  A
O264        C266   1.267       .  A
O265       Ni276   1.913       .  S
C266        O272   1.293       .  A
H268        O269   0.965       .  S
O269       Ni277   1.917       .  S
O269       Ni271   1.857       .  S
O269       Ni276   1.895       .  S
O270       Ni271   1.928       .  S
Ni271       O275   1.906       .  S
Ni271       O273   1.963       .  S
O272       Ni277   2.001       .  S
C274        O275   1.278       .  A
C274        C296   1.476       .  S
C279        C310   1.468       .  S
C279       C1064   1.404       .  A
C279        C284   1.395       .  A
C280       C1063   1.407   1_455  A
C280        C281   1.404       .  A
C280        H285   1.084       .  S
C281        C324   1.470       .  S
C281       C1458   1.398   1_545  A
C282       C1457   1.396       .  A
C282        C283   1.402       .  A
C282        H286   1.084       .  S
C283        C338   1.482       .  S
C283        C676   1.402       .  A
C284        C675   1.392   1_545  A
C284        H287   1.085       .  S
N288        C327   1.434       .  S
N288        C292   1.366       .  A
N288        C681   1.362       .  A
C289        C290   1.377       .  A
C289        N680   1.359       .  A
C290        C683   1.373   1_545  A
C290        H293   1.080       .  S
C291        C682   1.373       .  A
C291        C292   1.388       .  A
C291        H294   1.083       .  S
N295        C313   1.428       .  S
N295        C299   1.360       .  A
N295       C1080   1.360       .  A
C296       C1081   1.375       .  A
C296       N1079   1.357   1_455  A
C297       C1080   1.373       .  A
C297        C298   1.368       .  A
C297       H1084   1.083       .  S
C298        C299   1.391       .  A
C298        H301   1.081       .  S
H300       C1081   1.083       .  S
N302        C341   1.425       .  S
N302        C306   1.360       .  A
N302        C303   1.360       .  A
C303        C304   1.382       .  A
C304        C305   1.376       .  A
C304        H307   1.083       .  S
C305        C306   1.384       .  A
C305        H308   1.083       .  S
C309       C1094   1.402   1_455  A
C309        C314   1.398       .  A
C309        H316   1.084       .  S
C310       C1093   1.402       .  A
C310        C311   1.413       .  A
C311        C312   1.393       .  A
C311        N318   1.434       .  S
C312        C313   1.400       .  A
C312        H317   1.083       .  S
C313       C1098   1.402       .  A
C314       C1097   1.402   1_455  A
C314        N315   1.431       .  S
N315        H319   1.046       .  S
N315        H320   1.045       .  S
N318        H321   1.044       .  S
N318        H322   1.046       .  S
C323        C324   1.402       .  A
C323        C328   1.403       .  A
C323        H330   1.084       .  S
C324        C717   1.406   1_545  A
C325        C716   1.410       .  A
C325        C326   1.398       .  A
C325        N332   1.434       .  S
C326        C327   1.400       .  A
C326        H331   1.084       .  S
C327        C720   1.410       .  A
C328        C719   1.415   1_545  A
C328        N329   1.438       .  S
N329        H333   1.046       .  S
N329        H334   1.044       .  S
N332        H335   1.046       .  S
N332        H336   1.046       .  S
C337        C338   1.407       .  A
C337        C342   1.401       .  A
C337        H344   1.083       .  S
C338        C339   1.420       .  A
C339        C340   1.395       .  A
C339        N346   1.439       .  S
C340        C341   1.393       .  A
C340        H345   1.084       .  S
C341        C342   1.406       .  A
C342        N343   1.437       .  S
N343        H347   1.046       .  S
N343        H348   1.045       .  S
N346        H349   1.045       .  S
N346        H350   1.045       .  S
C351        C352   1.401       .  A
C351        C356   1.398       .  A
C351        H358   1.084       .  S
C353        C354   1.396       .  A
C353        N360   1.438       .  S
C354        H359   1.084       .  S
C355        C356   1.413       .  A
C356        N357   1.438       .  S
N357        H361   1.046       .  S
N357        H362   1.044       .  S
N360        H363   1.046       .  S
N360        H364   1.045       .  S
C365        C366   1.405       .  A
C365        C370   1.405       .  A
C365        H372   1.084       .  S
C366       C1151   1.409   1_456  A
C367       C1150   1.407   1_554  A
C367        C368   1.400       .  A
C367        N374   1.429       .  S
C368       C1153   1.399       .  A
C368        H373   1.084       .  S
C369       C1152   1.398   1_456  A
C369        C370   1.409       .  A
C370        N371   1.438       .  S
N371        H375   1.046       .  S
N371        H376   1.046       .  S
C379        C384   1.404   1_545  A
C379        H386   1.083       .  S
C380        C773   1.409       .  A
C381        C772   1.403       .  A
C381        C382   1.398       .  A
C381        N388   1.431       .  S
C382        C383   1.408       .  A
C382        H387   1.084       .  S
C383        C580   1.412       .  A
C384        C579   1.411       .  A
C384        N385   1.432   1_565  S
N385        H389   1.046       .  S
N385        H390   1.046   1_545  S
N388        H391   1.046       .  S
N388        H392   1.044       .  S
O393       Ni399   1.955       .  S
O393        C414   1.284       .  A
O394       Ni417   1.931       .  S
O394        C403   1.281       .  A
O395       Ni399   1.861       .  S
O395       Ni417   1.886       .  S
O395       Ni411   1.936       .  S
O395        H418   0.961       .  S
C396        O413   1.298       .  A
C396        O405   1.281       .  A
C396        C432   1.481       .  S
O397       Ni416   1.907       .  S
O397        C403   1.273       .  A
O398       Ni416   1.960       .  S
O398        C400   1.278       .  A
Ni399       O402   1.951       .  S
Ni399       O404   1.904       .  S
C400        O410   1.268       .  A
C400        C439   1.498       .  S
O401       Ni417   1.921       .  S
O401        C407   1.277       .  A
O402        C407   1.287       .  A
C403        C485   1.490       .  S
O404        C406   1.265       .  A
O405       Ni416   1.904       .  S
C406        O412   1.298       .  A
C406        C495   1.510       .  S
C407        C499   1.487       .  S
H408        O409   0.963       .  S
O409       Ni417   1.907       .  S
O409       Ni411   1.849       .  S
O409       Ni416   1.896       .  S
O410       Ni411   1.927       .  S
Ni411       O415   1.904       .  S
Ni411       O413   1.959       .  S
O412       Ni417   2.010       .  S
C414        O415   1.277       .  A
C414        C443   1.479       .  S
C419        C562   1.485       .  S
C419        C420   1.396   1_655  A
C419       C1404   1.409       .  A
C420        H425   1.084       .  S
C421        C548   1.470       .  S
C421       C1402   1.396   1_455  A
C422       C1401   1.390       .  A
C422        H426   1.085       .  S
C423        C579   1.470       .  S
C423        C424   1.408       .  A
C424       C1399   1.405       .  A
C424        H427   1.084       .  S
N428        C576   1.433   1_554  S
N428        C628   1.367       .  A
C429        C459   1.495       .  S
C429        C430   1.377       .  A
C430        H433   1.080       .  S
C431        C628   1.392       .  A
C431        H630   1.083       .  S
C432        C627   1.388       .  A
C432        N624   1.366       .  A
H434        C627   1.083       .  S
N435        C551   1.429       .  S
N435        C439   1.363       .  A
N435        C632   1.363       .  A
C436        C463   1.489       .  S
C436        C437   1.380       .  A
C436        N631   1.363   1_554  A
C437        C634   1.375   1_554  A
C437        H440   1.083       .  S
C438        C633   1.375       .  A
C438        C439   1.387       .  A
C438        H441   1.083       .  S
N442        C565   1.430       .  S
N442        C642   1.366       .  A
N442       C1227   1.368   1_455  A
C443       C1228   1.373       .  A
C443       N1226   1.364       .  A
C444       C1227   1.373       .  A
C444        C641   1.367   1_655  A
C444       H1231   1.083       .  S
C445        C640   1.368   1_454  A
C445        C446   1.393       .  A
C445        H448   1.083       .  S
C446        C462   1.501       .  S
C446        N638   1.363       .  A
H447       C1228   1.083       .  S
O449       Ni455   1.951       .  S
O449        C470   1.280       .  A
O450       Ni473   1.940       .  S
O450        C459   1.274       .  A
O451       Ni455   1.851       .  S
O451       Ni473   1.889       .  S
O451       Ni467   1.938       .  S
O451        H474   0.960       .  S
C452        O469   1.302       .  A
C452        O461   1.279       .  A
C452        C488   1.500       .  S
O453       Ni472   1.896       .  S
O453        C459   1.262       .  A
O454       Ni472   1.941       .  S
O454        C456   1.272       .  A
Ni455       O458   1.965       .  S
Ni455       O460   1.882       .  S
C456        O466   1.272       .  A
C456        C502   1.490       .  S
O457       Ni473   1.928       .  S
O457        C463   1.279       .  A
O458        C463   1.289       .  A
O460        C462   1.270       .  A
O461       Ni472   1.905       .  S
C462        O468   1.296       .  A
H464        O465   0.964       .  S
O465       Ni473   1.931       .  S
O465       Ni467   1.876       .  S
O465       Ni472   1.915       .  S
O466       Ni467   1.949       .  S
Ni467       O471   1.935       .  S
Ni467       O469   1.983       .  S
O468       Ni473   1.989       .  S
C470        O471   1.288       .  A
C470        C492   1.508       .  S
C475        C506   1.470       .  S
C475       C1260   1.403       .  A
C475        C480   1.396       .  A
C476       C1259   1.406   1_455  A
C476        C477   1.406       .  A
C476        H481   1.084       .  S
C477        C520   1.475       .  S
C477        C870   1.399       .  A
C478        C869   1.395   1_565  A
C478        C479   1.388       .  A
C478        H482   1.085       .  S
C479        C534   1.459       .  S
C480        H483   1.085       .  S
N484        C523   1.429       .  S
N484        C488   1.368   1_545  A
C485        C486   1.380       .  A
C486        H489   1.076       .  S
C487        C488   1.393       .  A
C487        H490   1.083       .  S
N491        C509   1.436       .  S
N491        C495   1.370       .  A
N491       C1276   1.377       .  A
C492       C1277   1.375       .  A
C492       N1275   1.381   1_455  A
C493       C1276   1.374       .  A
C493        C494   1.366       .  A
C493       H1280   1.083       .  S
C494        C495   1.392       .  A
C494        H497   1.078       .  S
H496       C1277   1.082       .  S
N498        C537   1.421       .  S
N498        C502   1.356       .  A
N498        C499   1.355       .  A
C499        C500   1.381       .  A
C500        C501   1.379       .  A
C500        H503   1.083       .  S
C501        C502   1.386       .  A
C501        H504   1.080       .  S
C505       C1290   1.399       .  A
C505        C510   1.397       .  A
C505        H512   1.085       .  S
C506       C1289   1.399       .  A
C506        C507   1.410       .  A
C507        C508   1.403       .  A
C507        N514   1.431       .  S
C508        C509   1.405       .  A
C508        H513   1.084       .  S
C509       C1294   1.410       .  A
C510       C1293   1.408       .  A
C510        N511   1.432       .  S
N511        H515   1.045   1_655  S
N511        H516   1.046       .  S
N514        H517   1.043       .  S
N514        H518   1.046       .  S
C519        C520   1.403       .  A
C519        C524   1.404       .  A
C519        H526   1.082       .  S
C521        C522   1.395       .  A
C521        N528   1.433       .  S
C522        C523   1.400   1_565  A
C522        H527   1.084       .  S
C524        N525   1.434       .  S
N525        H529   1.044       .  S
N525        H530   1.045       .  S
N528        H531   1.046       .  S
N528        H532   1.045       .  S
C533        C534   1.401       .  A
C533        C538   1.395       .  A
C533        H540   1.084       .  S
C534        C535   1.404       .  A
C535        C536   1.399       .  A
C535        N542   1.435       .  S
C536        C537   1.398       .  A
C536        H541   1.083       .  S
C537        C538   1.401       .  A
C538        N539   1.430       .  S
N539        H543   1.045       .  S
N539        H544   1.046       .  S
N542        H545   1.046       .  S
N542        H546   1.046       .  S
C547        C548   1.400       .  A
C547        C552   1.401       .  A
C547        H554   1.083       .  S
C548        C745   1.410       .  A
C549        C744   1.408   1_554  A
C549        C550   1.399       .  A
C549        N556   1.437       .  S
C550        C747   1.396   1_554  A
C550        H555   1.083       .  S
C551        C746   1.398       .  A
C551        C552   1.414       .  A
C552        N553   1.438       .  S
N553        H557   1.045       .  S
N553        H558   1.044       .  S
N556        H559   1.046       .  S
N556        H560   1.044       .  S
C561        C562   1.407   1_455  A
C561        C566   1.403       .  A
C561        H568   1.082       .  S
C562       C1347   1.409       .  A
C563       C1346   1.408       .  A
C563        C564   1.398       .  A
C563        N570   1.428       .  S
C564       C1349   1.399       .  A
C564        H569   1.084       .  S
C565       C1348   1.399   1_455  A
C565        C566   1.406       .  A
C566        N567   1.437       .  S
N567        H571   1.046       .  S
N567        H572   1.044       .  S
N570        H769   1.045       .  S
N570        H770   1.046       .  S
H573        N766   1.046       .  S
H574        N766   1.045       .  S
C575        C772   1.405       .  A
C575        C580   1.407       .  A
C575        H582   1.083       .  S
C576        C771   1.405       .  A
C577        C578   1.396       .  A
C577        N584   1.437       .  S
C578        C579   1.400   1_554  A
C578        H583   1.085       .  S
C580        N581   1.431       .  S
N581        H585   1.045       .  S
N581        H586   1.046       .  S
N584        H587   1.045   1_565  S
N584        H588   1.046       .  S
O589       Ni595   1.957       .  S
O589        C610   1.286       .  A
O590       Ni613   1.931       .  S
O590        C599   1.279       .  A
O591       Ni595   1.859       .  S
O591       Ni613   1.883       .  S
O591       Ni607   1.937       .  S
O591        H614   0.960       .  S
C592        O609   1.301       .  A
C592        O601   1.280       .  A
C592        C628   1.491   1_556  S
O593       Ni612   1.906       .  S
O593        C599   1.271       .  A
O594       Ni612   1.957       .  S
O594        C596   1.278       .  A
Ni595       O598   1.951       .  S
Ni595       O600   1.896       .  S
C596        O606   1.272       .  A
C596        C635   1.496       .  S
O597       Ni613   1.928       .  S
O597        C603   1.282       .  A
O598        C603   1.288       .  A
C599        C681   1.492       .  S
O600        C602   1.263       .  A
O601       Ni612   1.896       .  S
C602        O608   1.295       .  A
C602        C691   1.506       .  S
C603        C695   1.485       .  S
H604        O605   0.962       .  S
O605       Ni613   1.912       .  S
O605       Ni607   1.858       .  S
O605       Ni612   1.898       .  S
O606       Ni607   1.938       .  S
Ni607       O611   1.917       .  S
Ni607       O609   1.974       .  S
O608       Ni613   2.009       .  S
C610        O611   1.283       .  A
C610        C639   1.483       .  S
C615        C758   1.488   1_655  S
C615        C616   1.399   1_655  A
C615       C1208   1.406       .  A
C616        H621   1.084       .  S
C617        C744   1.465       .  S
C617       C1206   1.393   1_455  A
C618       C1205   1.397       .  A
C618        H622   1.084       .  S
C619        C775   1.471       .  S
C619        C620   1.408       .  A
C620       C1203   1.413       .  A
C620        H623   1.083       .  S
N624        C772   1.439       .  S
C625        C655   1.502       .  S
C625        C626   1.378       .  A
C626        H629   1.081       .  S
N631        C747   1.429       .  S
N631        C635   1.363       .  A
C632        C659   1.488       .  S
C632        C633   1.380       .  A
C633        H636   1.083       .  S
C634        C635   1.385       .  A
C634        H637   1.083       .  S
N638        C761   1.429       .  S
N638       C1423   1.365   1_454  A
C639       C1424   1.375       .  A
C639       N1422   1.363   1_556  A
C640       C1423   1.374       .  A
C640       H1427   1.083       .  S
C641        C642   1.392       .  A
C641        H644   1.083       .  S
C642        C658   1.505       .  S
H643       C1424   1.083       .  S
O645       Ni651   1.951       .  S
O645        C666   1.282       .  A
O646       Ni669   1.939       .  S
O646        C655   1.275       .  A
O647       Ni651   1.852       .  S
O647       Ni669   1.890       .  S
O647       Ni663   1.932       .  S
O647        H670   0.953       .  S
C648        O665   1.297       .  A
C648        O657   1.277       .  A
C648        C684   1.489       .  S
O649       Ni668   1.901       .  S
O649        C655   1.267       .  A
O650       Ni668   1.951       .  S
O650        C652   1.276       .  A
Ni651       O654   1.963       .  S
Ni651       O656   1.888       .  S
C652        O662   1.267       .  A
C652        C698   1.487       .  S
O653       Ni669   1.933       .  S
O653        C659   1.282       .  A
O654        C659   1.289       .  A
O656        C658   1.271       .  A
O657       Ni668   1.904       .  S
C658        O664   1.294       .  A
H660        O661   0.965       .  S
O661       Ni669   1.929       .  S
O661       Ni663   1.875       .  S
O661       Ni668   1.916       .  S
O662       Ni663   1.936       .  S
Ni663       O667   1.916       .  S
Ni663       O665   1.967       .  S
O664       Ni669   1.989       .  S
C666        O667   1.281       .  A
C666        C688   1.494       .  S
C671        C702   1.472       .  S
C671       C1456   1.405       .  A
C671        C676   1.395       .  A
C672       C1455   1.404   1_455  A
C672        C673   1.403       .  A
C672        H677   1.084       .  S
C673        C716   1.476       .  S
C673       C1066   1.401       .  A
C674       C1065   1.400   1_565  A
C674        C675   1.395       .  A
C674        H678   1.084       .  S
C675        C730   1.458       .  S
C676        H679   1.083       .  S
N680        C719   1.428   1_545  S
N680        C684   1.363   1_545  A
C681        C682   1.378       .  A
C682        H685   1.078       .  S
C683        C684   1.393       .  A
C683        H686   1.083       .  S
N687        C705   1.432       .  S
N687        C691   1.366       .  A
N687       C1472   1.375       .  A
C688       C1473   1.374       .  A
C688       N1471   1.373   1_455  A
C689       C1472   1.375       .  A
C689        C690   1.365       .  A
C689       H1476   1.083       .  S
C690        C691   1.391       .  A
C690        H693   1.082       .  S
H692       C1473   1.083       .  S
N694        C733   1.420       .  S
N694        C698   1.353       .  A
N694        C695   1.355       .  A
C695        C696   1.381       .  A
C696        C697   1.380       .  A
C696        H699   1.083       .  S
C697        C698   1.386       .  A
C697        H700   1.082       .  S
C701       C1486   1.400       .  A
C701        C706   1.396       .  A
C701        H708   1.085   1_655  S
C702       C1485   1.401       .  A
C702        C703   1.411       .  A
C703        C704   1.403       .  A
C703        N710   1.432       .  S
C704        C705   1.404       .  A
C704        H709   1.083       .  S
C705       C1490   1.405       .  A
C706       C1489   1.407       .  A
C706        N707   1.432   1_655  S
N707        H711   1.046       .  S
N707        H712   1.045   1_455  S
N710        H713   1.043       .  S
N710        H714   1.045       .  S
C715        C716   1.404       .  A
C715        C720   1.401       .  A
C715        H722   1.083       .  S
C717        C718   1.394       .  A
C717        N724   1.432       .  S
C718        C719   1.397       .  A
C718        H723   1.084       .  S
C720        N721   1.431       .  S
N721        H725   1.045       .  S
N721        H726   1.044       .  S
N724        H727   1.045       .  S
N724        H728   1.045       .  S
C729        C730   1.401       .  A
C729        C734   1.396       .  A
C729        H736   1.084       .  S
C730        C731   1.407       .  A
C731        C732   1.397       .  A
C731        N738   1.435       .  S
C732        C733   1.396       .  A
C732        H737   1.083       .  S
C733        C734   1.398       .  A
C734        N735   1.430       .  S
N735        H739   1.043       .  S
N735        H740   1.046       .  S
N738        H741   1.045       .  S
N738        H742   1.046       .  S
C743        C744   1.399       .  A
C743        C748   1.400       .  A
C743        H750   1.084       .  S
C745        C746   1.399       .  A
C745        N752   1.439       .  S
C746        H751   1.083       .  S
C747        C748   1.416       .  A
C748        N749   1.437       .  S
N749        H753   1.045       .  S
N749        H754   1.044       .  S
N752        H755   1.046       .  S
N752        H756   1.045       .  S
C757        C758   1.407       .  A
C757        C762   1.401       .  A
C757        H764   1.081       .  S
C758       C1543   1.412   1_456  A
C759       C1542   1.407   1_554  A
C759        C760   1.401       .  A
C759        N766   1.430       .  S
C760       C1545   1.399       .  A
C760        H765   1.083       .  S
C761       C1544   1.399   1_455  A
C761        C762   1.405   1_554  A
C762        N763   1.437       .  S
N763        H767   1.046       .  S
N763        H768   1.045       .  S
C771        C776   1.404       .  A
C771        H778   1.083       .  S
C773        C774   1.400       .  A
C773        N780   1.438       .  S
C774        C775   1.401       .  A
C774        H779   1.084       .  S
C776        N777   1.432       .  S
N777        H781   1.045       .  S
N777        H782   1.045       .  S
N780        H783   1.046   1_565  S
N780        H784   1.046       .  S
O785       Ni791   1.943       .  S
O785        C806   1.281       .  A
O786       Ni809   1.929       .  S
O786        C795   1.273       .  A
O787       Ni791   1.856       .  S
O787       Ni809   1.891       .  S
O787       Ni803   1.942       .  S
O787        H810   0.960       .  S
C788        O805   1.301       .  A
C788        O797   1.277       .  A
C788        C824   1.495       .  S
O789       Ni808   1.900       .  S
O789        C795   1.270       .  A
O790       Ni808   1.958       .  S
O790        C792   1.279       .  A
Ni791       O794   1.960       .  S
Ni791       O796   1.890       .  S
C792        O802   1.267       .  A
C792        C831   1.488       .  S
O793       Ni809   1.937       .  S
O793        C799   1.278       .  A
O794        C799   1.286       .  A
C795        C877   1.498       .  S
O796        C798   1.272       .  A
O797       Ni808   1.901       .  S
C798        O804   1.293       .  A
C798        C887   1.500       .  S
C799        C891   1.488       .  S
H800        O801   0.963       .  S
O801       Ni809   1.938       .  S
O801       Ni803   1.877       .  S
O801       Ni808   1.917       .  S
O802       Ni803   1.929       .  S
Ni803       O807   1.932       .  S
Ni803       O805   1.979       .  S
O804       Ni809   1.985       .  S
C806        O807   1.287       .  A
C806        C835   1.495       .  S
C811        C954   1.476       .  S
C811        C812   1.393       .  A
C812       C1205   1.395       .  A
C812        H817   1.085       .  S
C813        C940   1.465       .  S
C813       C1204   1.395   1_545  A
C814       C1207   1.397   1_545  A
C814        H818   1.085       .  S
C815        C971   1.484       .  S
C815       C1206   1.402       .  A
C815        C816   1.411       .  A
C816        H819   1.083       .  S
N820        C968   1.431   1_554  S
N820       C1020   1.363   1_565  A
N820       C1213   1.366       .  A
C821        C851   1.488       .  S
C821        C822   1.373       .  A
C821       N1212   1.364       .  A
C822       C1215   1.368       .  A
C822        H825   1.080       .  S
C823       C1214   1.376   1_545  A
C823       C1020   1.393       .  A
C823       H1022   1.083       .  S
C824       C1019   1.393       .  A
C824       N1016   1.363   1_545  A
H826       C1019   1.083       .  S
N827        C943   1.423       .  S
N827        C831   1.356       .  A
N827       C1024   1.358       .  A
C828        C855   1.482       .  S
C828        C829   1.380       .  A
C828       N1023   1.356   1_554  A
C829       C1026   1.375   1_554  A
C829        H832   1.083       .  S
C830       C1025   1.375       .  A
C830        C831   1.386       .  A
C830        H833   1.082       .  S
N834        C957   1.432       .  S
N834       C1034   1.369       .  A
C836       C1033   1.359       .  A
C837       C1032   1.368       .  A
C837        C838   1.395   1_556  A
C837        H840   1.083       .  S
C838        C854   1.499       .  S
C838       N1030   1.362       .  A
O841       Ni847   1.949       .  S
O841        C862   1.282       .  A
O842       Ni865   1.923       .  S
O842        C851   1.272       .  A
O843       Ni847   1.859       .  S
O843       Ni865   1.885       .  S
O843       Ni859   1.941       .  S
O843        H866   0.961       .  S
C844        O861   1.300       .  A
C844        O853   1.279       .  A
C844        C880   1.490       .  S
O845       Ni864   1.907       .  S
O845        C851   1.272       .  A
O846       Ni864   1.964       .  S
O846        C848   1.280       .  A
Ni847       O850   1.964       .  S
Ni847       O852   1.886       .  S
C848        O858   1.268       .  A
C848        C894   1.504       .  S
O849       Ni865   1.915       .  S
O849        C855   1.273       .  A
O850        C855   1.288       .  A
O852        C854   1.270       .  A
O853       Ni864   1.904       .  S
C854        O860   1.294       .  A
H856        O857   0.960       .  S
O857       Ni865   1.928       .  S
O857       Ni859   1.868       .  S
O857       Ni864   1.907       .  S
O858       Ni859   1.923       .  S
Ni859       O863   1.918       .  S
Ni859       O861   1.972       .  S
O860       Ni865   1.988       .  S
C862        O863   1.280       .  A
C862        C884   1.479       .  S
C867        C898   1.464       .  S
C867        C872   1.394       .  A
C868        C869   1.404       .  A
C868        H873   1.084       .  S
C869        C912   1.461       .  S
C870        C871   1.400   1_455  A
C870        H874   1.085       .  S
C871        C926   1.466       .  S
C871       C1264   1.399       .  A
C872       C1263   1.392   1_545  A
C872        H875   1.085       .  S
N876        C915   1.431       .  S
N876        C880   1.367       .  A
N876       C1269   1.363       .  A
C877        C878   1.377       .  A
C877       N1268   1.364       .  A
C878       C1271   1.376   1_545  A
C878        H881   1.082       .  S
C879       C1270   1.375       .  A
C879        C880   1.390       .  A
C879        H882   1.083       .  S
N883        C901   1.426       .  S
N883        C887   1.363       .  A
C885        C886   1.367   1_455  A
C886        C887   1.392       .  A
C886        H889   1.083       .  S
N890        C929   1.428       .  S
N890        C894   1.365       .  A
N890        C891   1.366       .  A
C891        C892   1.377       .  A
C892        C893   1.372       .  A
C892        H895   1.083       .  S
C893        C894   1.388       .  A
C893        H896   1.083       .  S
C897        C902   1.405       .  A
C897        H904   1.082       .  S
C898        C899   1.411       .  A
C899        C900   1.392       .  A
C899        N906   1.434       .  S
C900        C901   1.398       .  A
C900        H905   1.084       .  S
C902        N903   1.432       .  S
N903        H907   1.046       .  S
N903        H908   1.046       .  S
N906        H909   1.045       .  S
N906        H910   1.046   1_655  S
C911        C912   1.402       .  A
C911        C916   1.397       .  A
C911        H918   1.083       .  S
C912       C1305   1.406   1_545  A
C913       C1304   1.406       .  A
C913        C914   1.397       .  A
C913        N920   1.433       .  S
C914        C915   1.401       .  A
C914        H919   1.083       .  S
C915       C1308   1.410       .  A
C916       C1307   1.410       .  A
C916        N917   1.432       .  S
N917        H921   1.046       .  S
N917        H922   1.044       .  S
N920        H923   1.045       .  S
N920        H924   1.046       .  S
C925        C926   1.400       .  A
C925        C930   1.407       .  A
C925        H932   1.080       .  S
C926        C927   1.407       .  A
C927        C928   1.394       .  A
C927        N934   1.434       .  S
C928        C929   1.396       .  A
C928        H933   1.082       .  S
C929        C930   1.410       .  A
C930        N931   1.438       .  S
N931        H935   1.045       .  S
N931        H936   1.043       .  S
N934        H937   1.046       .  S
N934        H938   1.045       .  S
C939        C940   1.400       .  A
C939        C944   1.397       .  A
C939        H946   1.083       .  S
C940       C1137   1.410       .  A
C941       C1136   1.410   1_554  A
C941        C942   1.395       .  A
C941        N948   1.439       .  S
C942       C1139   1.395   1_554  A
C942        H947   1.084       .  S
C943       C1138   1.396       .  A
C943        C944   1.411       .  A
C944        N945   1.437       .  S
N945        H949   1.046       .  S
N945        H950   1.044       .  S
N948        H951   1.046       .  S
N948        H952   1.045       .  S
C953        C954   1.408       .  A
C953        C958   1.411       .  A
C953        H960   1.084       .  S
C955        C956   1.395       .  A
C955        N962   1.433       .  S
C956        H961   1.084       .  S
C957        C958   1.409       .  A
C958        N959   1.437       .  S
N959        H963   1.046       .  S
N959        H964   1.045       .  S
N962       H1161   1.045       .  S
N962       H1162   1.046       .  S
H965       N1158   1.046       .  S
H966       N1158   1.045       .  S
C967       C1164   1.402   1_545  A
C967        C972   1.404       .  A
C967        H974   1.083       .  S
C968       C1163   1.400   1_565  A
C968       C1361   1.409   1_556  A
C969       C1360   1.404   1_554  A
C969        C970   1.399       .  A
C969        N976   1.432       .  S
C970        C971   1.407   1_554  A
C970        H975   1.083       .  S
C971       C1560   1.409       .  A
C972       C1559   1.410   1_545  A
C972        N973   1.432       .  S
N973        H977   1.046       .  S
N973        H978   1.045       .  S
N976        H979   1.046       .  S
N976        H980   1.046       .  S
O981       Ni987   1.942       .  S
O981       C1002   1.281       .  A
O982      Ni1005   1.929       .  S
O982        C991   1.274       .  A
O983       Ni987   1.859       .  S
O983      Ni1005   1.879       .  S
O983       Ni999   1.941       .  S
O983       H1006   0.959       .  S
C984       O1001   1.300       .  A
C984        O993   1.277       .  A
C984       C1020   1.492   1_556  S
O985      Ni1004   1.902       .  S
O985        C991   1.269       .  A
O986      Ni1004   1.958       .  S
O986        C988   1.279       .  A
Ni987       O990   1.959       .  S
Ni987       O992   1.887       .  S
C988        O998   1.270       .  A
C988       C1027   1.490       .  S
O989      Ni1005   1.928       .  S
O989        C995   1.278       .  A
O990        C995   1.288       .  A
C991       C1073   1.493       .  S
O992        C994   1.270       .  A
O993      Ni1004   1.900       .  S
C994       O1000   1.294       .  A
C994       C1083   1.491       .  S
C995       C1087   1.480       .  S
H996        O997   0.964       .  S
O997      Ni1005   1.937       .  S
O997       Ni999   1.874       .  S
O997      Ni1004   1.913       .  S
O998       Ni999   1.932       .  S
Ni999      O1003   1.920       .  S
Ni999      O1001   1.974       .  S
O1000     Ni1005   1.982       .  S
C1002      O1003   1.284       .  A
C1002      C1031   1.483       .  S
C1007      C1150   1.477       .  S
C1007      C1008   1.398       .  A
C1008      C1401   1.394       .  A
C1008      H1013   1.085       .  S
C1009      C1136   1.460       .  S
C1009      C1400   1.394   1_545  A
C1010      C1403   1.394   1_545  A
C1010      H1014   1.085       .  S
C1011      C1167   1.491       .  S
C1011      C1402   1.406       .  A
C1011      C1012   1.407       .  A
C1012      H1015   1.083       .  S
N1016      C1164   1.431       .  S
N1016      C1409   1.369       .  A
C1017      C1047   1.491       .  S
C1017      C1018   1.374       .  A
C1017      N1408   1.365       .  A
C1018      C1411   1.370       .  A
C1018      H1021   1.078       .  S
C1019      C1410   1.373   1_545  A
N1023      C1139   1.421       .  S
N1023      C1027   1.359       .  A
C1024      C1051   1.478       .  S
C1024      C1025   1.379       .  A
C1025      H1028   1.083       .  S
C1026      C1027   1.385       .  A
C1026      H1029   1.082       .  S
N1030      C1153   1.428       .  S
C1033      C1034   1.391       .  A
C1033      H1036   1.080       .  S
C1034      C1050   1.503       .  S
O1037     Ni1043   1.940       .  S
O1037      C1058   1.281       .  A
O1038     Ni1061   1.927       .  S
O1038      C1047   1.277       .  A
O1039     Ni1043   1.866       .  S
O1039     Ni1061   1.883       .  S
O1039     Ni1055   1.943       .  S
O1039      H1062   0.960       .  S
C1040      O1057   1.300       .  A
C1040      O1049   1.281       .  A
C1040      C1076   1.492       .  S
O1041     Ni1060   1.914       .  S
O1041      C1047   1.275       .  A
O1042     Ni1060   1.959       .  S
O1042      C1044   1.280       .  A
Ni1043     O1046   1.941       .  S
Ni1043     O1048   1.903       .  S
C1044      O1054   1.268       .  A
C1044      C1090   1.492       .  S
O1045     Ni1061   1.935       .  S
O1045      C1051   1.282       .  A
O1046      C1051   1.284       .  A
O1048      C1050   1.265       .  A
O1049     Ni1060   1.910       .  S
C1050      O1056   1.292       .  A
H1052      O1053   0.965       .  S
O1053     Ni1061   1.921       .  S
O1053     Ni1055   1.862       .  S
O1053     Ni1060   1.898       .  S
O1054     Ni1055   1.924       .  S
Ni1055     O1059   1.917       .  S
Ni1055     O1057   1.972       .  S
O1056     Ni1061   2.000       .  S
C1058      O1059   1.282       .  A
C1058      C1080   1.472       .  S
C1063      C1094   1.468       .  S
C1063      C1068   1.397       .  A
C1064      C1065   1.406       .  A
C1064      H1069   1.084       .  S
C1065      C1108   1.473       .  S
C1066      C1067   1.402   1_455  A
C1066      H1070   1.084       .  S
C1067      C1122   1.483       .  S
C1067      C1460   1.403       .  A
C1068      C1459   1.390   1_545  A
C1068      H1071   1.084       .  S
N1072      C1111   1.431       .  S
N1072      C1076   1.368       .  A
N1072      C1465   1.363       .  A
C1073      C1074   1.378       .  A
C1073      N1464   1.363       .  A
C1074      C1467   1.374   1_545  A
C1074      H1077   1.081       .  S
C1075      C1466   1.374       .  A
C1075      C1076   1.391       .  A
C1075      H1078   1.083       .  S
N1079      C1097   1.421       .  S
N1079      C1083   1.356       .  A
C1081      C1082   1.373   1_455  A
C1082      C1083   1.393       .  A
C1082      H1085   1.083       .  S
N1086      C1125   1.427       .  S
N1086      C1090   1.359       .  A
N1086      C1087   1.361       .  A
C1087      C1088   1.379       .  A
C1088      C1089   1.374       .  A
C1088      H1091   1.083       .  S
C1089      C1090   1.385       .  A
C1089      H1092   1.083       .  S
C1093      C1098   1.403       .  A
C1093      H1100   1.083       .  S
C1094      C1095   1.417       .  A
C1095      C1096   1.392       .  A
C1095      N1102   1.434       .  S
C1096      C1097   1.396       .  A
C1096      H1101   1.084       .  S
C1098      N1099   1.430       .  S
N1099      H1103   1.046       .  S
N1099      H1104   1.044       .  S
N1102      H1105   1.043       .  S
N1102      H1106   1.046       .  S
C1107      C1108   1.401       .  A
C1107      C1112   1.401       .  A
C1107      H1114   1.082       .  S
C1108      C1501   1.406   1_545  A
C1109      C1500   1.403       .  A
C1109      C1110   1.397       .  A
C1109      N1116   1.431       .  S
C1110      C1111   1.401       .  A
C1110      H1115   1.084       .  S
C1111      C1504   1.412       .  A
C1112      C1503   1.412       .  A
C1112      N1113   1.437       .  S
N1113      H1117   1.046       .  S
N1113      H1118   1.044       .  S
N1116      H1119   1.045       .  S
N1116      H1120   1.046       .  S
C1121      C1122   1.407       .  A
C1121      C1126   1.403       .  A
C1121      H1128   1.081       .  S
C1122      C1123   1.418       .  A
C1123      C1124   1.396       .  A
C1123      N1130   1.439       .  S
C1124      C1125   1.394       .  A
C1124      H1129   1.084       .  S
C1125      C1126   1.405       .  A
C1126      N1127   1.437       .  S
N1127      H1131   1.046       .  S
N1127      H1132   1.045       .  S
N1130      H1133   1.046       .  S
N1130      H1134   1.046       .  S
C1135      C1136   1.398       .  A
C1135      C1140   1.396       .  A
C1135      H1142   1.084       .  S
C1137      C1138   1.396       .  A
C1137      N1144   1.438       .  S
C1138      H1143   1.084       .  S
C1139      C1140   1.415       .  A
C1140      N1141   1.438       .  S
N1141      H1145   1.045       .  S
N1141      H1146   1.043       .  S
N1144      H1147   1.046       .  S
N1144      H1148   1.045       .  S
C1149      C1150   1.404       .  A
C1149      C1154   1.404       .  A
C1149      H1156   1.084       .  S
C1151      C1152   1.401       .  A
C1151      N1158   1.429       .  S
C1152      H1157   1.084       .  S
C1153      C1154   1.408   1_554  A
C1154      N1155   1.438       .  S
N1155      H1159   1.046       .  S
N1155      H1160   1.046       .  S
C1163      C1168   1.402       .  A
C1163      H1170   1.083       .  S
C1164      C1557   1.406       .  A
C1165      C1556   1.404       .  A
C1165      C1166   1.397       .  A
C1165      N1172   1.431       .  S
C1166      C1167   1.408       .  A
C1166      H1171   1.084       .  S
C1167      C1364   1.413       .  A
C1168      C1363   1.408   1_545  A
C1168      N1169   1.431       .  S
N1169      H1173   1.046       .  S
N1169      H1174   1.045       .  S
N1172      H1175   1.046       .  S
N1172      H1176   1.044       .  S
O1177     Ni1183   1.956       .  S
O1177      C1198   1.284       .  A
O1178     Ni1201   1.938       .  S
O1178      C1187   1.280       .  A
O1179     Ni1183   1.869       .  S
O1179     Ni1201   1.890       .  S
O1179     Ni1195   1.941       .  S
O1179      H1202   0.961       .  S
C1180      O1197   1.301       .  A
C1180      O1189   1.280       .  A
C1180      C1216   1.492       .  S
O1181     Ni1200   1.905       .  S
O1181      C1187   1.272       .  A
O1182     Ni1200   1.957       .  S
O1182      C1184   1.278       .  A
Ni1183     O1186   1.949       .  S
Ni1183     O1188   1.909       .  S
C1184      O1194   1.271       .  A
C1184      C1223   1.495       .  S
O1185     Ni1201   1.932       .  S
O1185      C1191   1.282       .  A
O1186      C1191   1.286       .  A
C1187      C1269   1.498       .  S
O1188      C1190   1.267       .  A
O1189     Ni1200   1.901       .  S
C1190      O1196   1.295       .  A
C1190      C1279   1.511       .  S
C1191      C1283   1.488       .  S
H1192      O1193   0.962       .  S
O1193     Ni1201   1.914       .  S
O1193     Ni1195   1.859       .  S
O1193     Ni1200   1.901       .  S
O1194     Ni1195   1.932       .  S
Ni1195     O1199   1.922       .  S
Ni1195     O1197   1.973       .  S
O1196     Ni1201   2.007       .  S
C1198      O1199   1.283       .  A
C1198      C1227   1.487       .  S
C1203      C1346   1.490       .  S
C1203      C1204   1.398       .  A
C1204      H1209   1.084       .  S
C1205      C1332   1.472       .  S
C1206      H1210   1.085       .  S
C1207      C1363   1.470       .  S
C1207      C1208   1.404       .  A
C1208      H1211   1.082       .  S
N1212      C1360   1.437   1_554  S
N1212      C1412   1.369       .  A
C1213      C1243   1.498       .  S
C1213      C1214   1.378       .  A
C1214      H1217   1.080       .  S
C1215      C1412   1.393       .  A
C1215      H1414   1.084       .  S
C1216      C1411   1.390       .  A
C1216      N1408   1.371       .  A
H1218      C1411   1.084       .  S
N1219      C1335   1.426       .  S
N1219      C1223   1.362       .  A
N1219      C1416   1.363       .  A
C1220      C1247   1.496       .  S
C1220      C1221   1.381       .  A
C1220      N1415   1.361   1_554  A
C1221      C1418   1.381   1_554  A
C1221      H1224   1.083       .  S
C1222      C1417   1.374       .  A
C1222      C1223   1.384       .  A
C1222      H1225   1.082       .  S
N1226      C1349   1.430       .  S
N1226      C1426   1.364       .  A
C1228      C1425   1.366       .  A
C1229      C1424   1.371       .  A
C1229      C1230   1.391   1_556  A
C1229      H1232   1.083   1_556  S
C1230      C1246   1.496       .  S
C1230      N1422   1.360       .  A
O1233     Ni1239   1.950       .  S
O1233      C1254   1.282       .  A
O1234     Ni1257   1.941       .  S
O1234      C1243   1.273       .  A
O1235     Ni1239   1.849       .  S
O1235     Ni1257   1.885       .  S
O1235     Ni1251   1.943       .  S
O1235      H1258   0.960       .  S
C1236      O1253   1.304       .  A
C1236      O1245   1.277       .  A
C1236      C1272   1.499       .  S
O1237     Ni1256   1.893       .  S
O1237      C1243   1.261       .  A
O1238     Ni1256   1.942       .  S
O1238      C1240   1.273       .  A
Ni1239     O1242   1.970       .  S
Ni1239     O1244   1.892       .  S
C1240      O1250   1.267       .  A
C1240      C1286   1.487       .  S
O1241     Ni1257   1.929       .  S
O1241      C1247   1.279       .  A
O1242      C1247   1.289       .  A
O1244      C1246   1.272       .  A
O1245     Ni1256   1.899       .  S
C1246      O1252   1.295       .  A
H1248      O1249   0.963       .  S
O1249     Ni1257   1.933       .  S
O1249     Ni1251   1.878       .  S
O1249     Ni1256   1.915       .  S
O1250     Ni1251   1.934       .  S
Ni1251     O1255   1.937       .  S
Ni1251     O1253   1.987       .  S
O1252     Ni1257   1.981       .  S
C1254      O1255   1.289       .  A
C1254      C1276   1.504       .  S
C1259      C1290   1.473       .  S
C1259      C1264   1.397       .  A
C1260      C1261   1.405       .  A
C1260      H1265   1.084       .  S
C1261      C1304   1.470       .  S
C1262      C1263   1.391   1_455  A
C1262      H1266   1.085       .  S
C1263      C1318   1.453       .  S
C1264      H1267   1.085       .  S
N1268      C1307   1.424       .  S
N1268      C1272   1.364   1_545  A
C1269      C1270   1.378       .  A
C1270      H1273   1.078       .  S
C1271      C1272   1.393       .  A
C1271      H1274   1.083       .  S
N1275      C1293   1.439       .  S
N1275      C1279   1.373       .  A
C1277      C1278   1.363       .  A
C1278      C1279   1.388   1_455  A
C1278      H1281   1.078   1_455  S
N1282      C1321   1.420       .  S
N1282      C1286   1.353       .  A
N1282      C1283   1.357       .  A
C1283      C1284   1.381       .  A
C1284      C1285   1.378       .  A
C1284      H1287   1.082       .  S
C1285      C1286   1.385       .  A
C1285      H1288   1.081       .  S
C1289      C1294   1.396       .  A
C1289      H1296   1.085       .  S
C1290      C1291   1.411       .  A
C1291      C1292   1.405       .  A
C1291      N1298   1.432       .  S
C1292      C1293   1.407       .  A
C1292      H1297   1.084       .  S
C1294      N1295   1.433       .  S
N1295      H1299   1.046       .  S
N1295      H1300   1.046       .  S
N1298      H1301   1.044       .  S
N1298      H1302   1.046   1_655  S
C1303      C1304   1.401       .  A
C1303      C1308   1.398       .  A
C1303      H1310   1.082       .  S
C1305      C1306   1.391       .  A
C1305      N1312   1.433       .  S
C1306      C1307   1.398   1_565  A
C1306      H1311   1.084       .  S
C1308      N1309   1.432       .  S
N1309      H1313   1.043       .  S
N1309      H1314   1.043       .  S
N1312      H1315   1.046       .  S
N1312      H1316   1.046       .  S
C1317      C1318   1.400       .  A
C1317      C1322   1.394       .  A
C1317      H1324   1.084       .  S
C1318      C1319   1.406       .  A
C1319      C1320   1.397       .  A
C1319      N1326   1.437       .  S
C1320      C1321   1.396       .  A
C1320      H1325   1.083       .  S
C1321      C1322   1.401       .  A
C1322      N1323   1.431       .  S
N1323      H1327   1.043       .  S
N1323      H1328   1.046       .  S
N1326      H1329   1.046       .  S
N1326      H1330   1.046       .  S
C1331      C1332   1.400       .  A
C1331      C1336   1.396       .  A
C1331      H1338   1.084       .  S
C1332      C1529   1.416       .  A
C1333      C1528   1.406   1_554  A
C1333      C1334   1.396       .  A
C1333      N1340   1.433       .  S
C1334      C1531   1.394   1_554  A
C1334      H1339   1.084       .  S
C1335      C1530   1.394       .  A
C1335      C1336   1.408       .  A
C1336      N1337   1.431       .  S
N1337      H1341   1.046       .  S
N1337      H1342   1.045       .  S
N1340      H1343   1.045       .  S
N1340      H1344   1.045       .  S
C1345      C1346   1.411       .  A
C1345      C1350   1.405       .  A
C1345      H1352   1.082       .  S
C1347      C1348   1.401       .  A
C1347      N1354   1.430       .  S
C1348      H1353   1.083       .  S
C1349      C1350   1.404       .  A
C1350      N1351   1.437       .  S
N1351      H1355   1.046       .  S
N1351      H1356   1.044       .  S
N1354      H1553   1.045       .  S
N1354      H1554   1.045       .  S
H1357      N1550   1.045       .  S
H1358      N1550   1.046       .  S
C1359      C1556   1.406       .  A
C1359      C1364   1.407       .  A
C1359      H1366   1.083       .  S
C1360      C1555   1.406       .  A
C1361      C1362   1.398       .  A
C1361      N1368   1.437       .  S
C1362      C1363   1.401   1_554  A
C1362      H1367   1.085       .  S
C1364      N1365   1.431       .  S
N1365      H1369   1.045       .  S
N1365      H1370   1.046       .  S
N1368      H1371   1.045   1_565  S
N1368      H1372   1.046       .  S
O1373     Ni1379   1.953       .  S
O1373      C1394   1.285       .  A
O1374     Ni1397   1.929       .  S
O1374      C1383   1.278       .  A
O1375     Ni1379   1.857       .  S
O1375     Ni1397   1.882       .  S
O1375     Ni1391   1.943       .  S
O1375      H1398   0.956       .  S
C1376      O1393   1.302       .  A
C1376      O1385   1.280       .  A
C1376      C1412   1.497   1_556  S
O1377     Ni1396   1.912       .  S
O1377      C1383   1.276       .  A
O1378     Ni1396   1.968       .  S
O1378      C1380   1.283       .  A
Ni1379     O1382   1.952       .  S
Ni1379     O1384   1.900       .  S
C1380      O1390   1.271       .  A
C1380      C1419   1.503       .  S
O1381     Ni1397   1.931       .  S
O1381      C1387   1.282       .  A
O1382      C1387   1.287       .  A
C1383      C1465   1.498       .  S
O1384      C1386   1.265       .  A
O1385     Ni1396   1.901       .  S
C1386      O1392   1.295       .  A
C1386      C1475   1.508       .  S
C1387      C1479   1.489       .  S
H1388      O1389   0.964       .  S
O1389     Ni1397   1.917       .  S
O1389     Ni1391   1.854       .  S
O1389     Ni1396   1.896       .  S
O1390     Ni1391   1.940       .  S
Ni1391     O1395   1.918       .  S
Ni1391     O1393   1.979       .  S
O1392     Ni1397   2.008       .  S
C1394      O1395   1.284       .  A
C1394      C1423   1.482       .  S
C1399      C1542   1.476       .  S
C1399      C1400   1.392       .  A
C1400      H1405   1.085       .  S
C1401      C1528   1.458       .  S
C1402      H1406   1.084       .  S
C1403      C1559   1.469       .  S
C1403      C1404   1.406       .  A
C1404      H1407   1.083       .  S
N1408      C1556   1.440       .  S
C1409      C1439   1.498       .  S
C1409      C1410   1.377       .  A
C1410      H1413   1.082       .  S
N1415      C1531   1.418       .  S
N1415      C1419   1.360       .  A
C1416      C1443   1.488       .  S
C1416      C1417   1.380       .  A
C1417      H1420   1.083       .  S
C1418      C1419   1.385       .  A
C1418      H1421   1.082       .  S
N1422      C1545   1.425       .  S
C1425      C1426   1.394       .  A
C1425      H1428   1.083       .  S
C1426      C1442   1.500       .  S
O1429     Ni1435   1.949       .  S
O1429      C1450   1.281       .  A
O1430     Ni1453   1.937       .  S
O1430      C1439   1.275       .  A
O1431     Ni1435   1.854       .  S
O1431     Ni1453   1.889       .  S
O1431     Ni1447   1.936       .  S
O1431      H1454   0.959       .  S
C1432      O1449   1.298       .  A
C1432      O1441   1.278       .  A
C1432      C1468   1.495       .  S
O1433     Ni1452   1.903       .  S
O1433      C1439   1.266       .  A
O1434     Ni1452   1.947       .  S
O1434      C1436   1.276       .  A
Ni1435     O1438   1.969       .  S
Ni1435     O1440   1.887       .  S
C1436      O1446   1.270       .  A
C1436      C1482   1.491       .  S
O1437     Ni1453   1.926       .  S
O1437      C1443   1.277       .  A
O1438      C1443   1.288       .  A
O1440      C1442   1.272       .  A
O1441     Ni1452   1.907       .  S
C1442      O1448   1.294       .  A
H1444      O1445   0.965       .  S
O1445     Ni1453   1.935       .  S
O1445     Ni1447   1.883       .  S
O1445     Ni1452   1.913       .  S
O1446     Ni1447   1.943       .  S
Ni1447     O1451   1.928       .  S
Ni1447     O1449   1.974       .  S
O1448     Ni1453   1.984       .  S
C1450      O1451   1.285       .  A
C1450      C1472   1.498       .  S
C1455      C1486   1.473       .  S
C1455      C1460   1.397       .  A
C1456      C1457   1.402       .  A
C1456      H1461   1.084       .  S
C1457      C1500   1.468       .  S
C1458      C1459   1.391   1_455  A
C1458      H1462   1.085       .  S
C1459      C1514   1.456       .  S
C1460      H1463   1.084       .  S
N1464      C1503   1.430       .  S
N1464      C1468   1.363   1_545  A
C1465      C1466   1.378       .  A
C1466      H1469   1.079       .  S
C1467      C1468   1.393       .  A
C1467      H1470   1.083       .  S
N1471      C1489   1.434       .  S
N1471      C1475   1.371       .  A
C1473      C1474   1.362       .  A
C1474      C1475   1.392   1_455  A
C1474      H1477   1.082   1_455  S
N1478      C1517   1.427       .  S
N1478      C1482   1.359       .  A
N1478      C1479   1.360       .  A
C1479      C1480   1.381       .  A
C1480      C1481   1.376       .  A
C1480      H1483   1.083       .  S
C1481      C1482   1.384       .  A
C1481      H1484   1.080       .  S
C1485      C1490   1.396       .  A
C1485      H1492   1.085       .  S
C1486      C1487   1.411       .  A
C1487      C1488   1.405       .  A
C1487      N1494   1.432       .  S
C1488      C1489   1.406       .  A
C1488      H1493   1.083       .  S
C1490      N1491   1.432       .  S
N1491      H1495   1.046       .  S
N1491      H1496   1.046       .  S
N1494      H1497   1.044       .  S
N1494      H1498   1.046   1_655  S
C1499      C1500   1.399       .  A
C1499      C1504   1.400       .  A
C1499      H1506   1.080       .  S
C1501      C1502   1.398       .  A
C1501      N1508   1.431       .  S
C1502      C1503   1.400   1_565  A
C1502      H1507   1.084       .  S
C1504      N1505   1.432       .  S
N1505      H1509   1.044       .  S
N1505      H1510   1.043       .  S
N1508      H1511   1.046       .  S
N1508      H1512   1.046       .  S
C1513      C1514   1.398       .  A
C1513      C1518   1.393       .  A
C1513      H1520   1.085       .  S
C1514      C1515   1.406       .  A
C1515      C1516   1.402       .  A
C1515      N1522   1.436       .  S
C1516      C1517   1.401       .  A
C1516      H1521   1.083       .  S
C1517      C1518   1.402       .  A
C1518      N1519   1.430       .  S
N1519      H1523   1.042       .  S
N1519      H1524   1.046       .  S
N1522      H1525   1.046       .  S
N1522      H1526   1.046       .  S
C1527      C1528   1.397       .  A
C1527      C1532   1.394       .  A
C1527      H1534   1.083       .  S
C1529      C1530   1.400       .  A
C1529      N1536   1.438       .  S
C1530      H1535   1.084       .  S
C1531      C1532   1.411       .  A
C1532      N1533   1.437       .  S
N1533      H1537   1.046       .  S
N1533      H1538   1.044       .  S
N1536      H1539   1.046       .  S
N1536      H1540   1.044       .  S
C1541      C1542   1.402       .  A
C1541      C1546   1.398       .  A
C1541      H1548   1.078       .  S
C1543      C1544   1.400       .  A
C1543      N1550   1.430       .  S
C1544      H1549   1.084       .  S
C1545      C1546   1.405   1_554  A
C1546      N1547   1.438       .  S
N1547      H1551   1.046       .  S
N1547      H1552   1.044       .  S
C1555      C1560   1.404       .  A
C1555      H1562   1.083       .  S
C1557      C1558   1.398       .  A
C1557      N1564   1.437       .  S
C1558      C1559   1.400       .  A
C1558      H1563   1.084       .  S
C1560      N1561   1.432       .  S
N1561      H1565   1.045       .  S
N1561      H1566   1.046       .  S
N1564      H1567   1.046   1_565  S
N1564      H1568   1.046       .  S
