geometry optimzed in LAMMPS
_audit_creation_date              2020-11-30 
_audit_creation_method            'lammps2cif' 
_symmetry_space_group_name_H-M    'P1' 
_symmetry_Int_Tables_number       1 
_symmetry_cell_setting            triclinic 
loop_ 
_symmetry_equiv_pos_as_xyz 
  x,y,z 
_cell_length_a                    23.7764529694484 
_cell_length_b                    24.37850546654145 
_cell_length_c                    25.695031788100536 
_cell_angle_alpha                 86.66416324117613 
_cell_angle_beta                  86.06601096135394 
_cell_angle_gamma                 82.36653503807253 
loop_ 
_atom_site_label 
_atom_site_type_symbol 
_atom_site_fract_x 
_atom_site_fract_y 
_atom_site_fract_z 
_atom_site_charge 
Zr1        Zr  0.50579129  0.10659947  0.51821679     2.17510
O2          O  0.46986666  0.20193763  0.49244680    -0.51990
O3          O  0.57293729  0.12865895  0.57834474    -0.75200
O4          O  0.44066161  0.14782025  0.58699481    -0.81980
O5          O  0.61438793  0.08631960  0.40418763    -0.83730
O6          O  0.40024306  0.07836462  0.63217182    -0.79350
O7          O  0.56944163  0.15328800  0.45583761    -0.90990
O8          O  0.62206781  0.04888238  0.61060576    -0.76950
O9          O  0.50266913  0.03817830  0.58807745    -0.86440
O10         O  0.58743341  0.03983010  0.50680212    -0.86130
O11         O  0.41807467  0.06852941  0.51156204    -0.72890
O12         O  0.49598143  0.06951389  0.43542976    -0.85020
Zr13       Zr  0.49146493  0.89286792  0.48650769     2.26420
Zr14       Zr  0.41758604  0.99820465  0.58054353     2.06270
Zr15       Zr  0.57720620  0.00183001  0.42573072     2.10050
Zr16       Zr  0.58410290  0.97161261  0.57616292     1.78760
O17         O  0.55861067  0.02375380  0.33435791    -0.93830
O18         O  0.56919092  0.96032889  0.67075161    -0.41640
O19         O  0.57799817  0.93150253  0.49415905    -0.78270
O20         O  0.49901490  0.92979831  0.57037800    -0.96960
O21         O  0.40923599  0.95894131  0.49927290    -0.90260
O22         O  0.49308764  0.96163507  0.41720386    -0.93100
C23         C  0.61062054  0.10183771  0.60691532     1.00650
C24         C  0.60577791  0.13580379  0.41895256     1.13580
C25         C  0.40947154  0.12877443  0.62487003     1.04360
O26         O  0.41604757  0.96524208  0.67185532    -0.95260
O27         O  0.37273494  0.91541772  0.59364589    -0.91000
O28         O  0.42359395  0.84841507  0.54502123    -0.84150
C29         C  0.38362236  0.86575402  0.57881045     1.11000
O30         O  0.36870018  0.11873104  0.39870098    -0.97230
Zr31       Zr  0.41091568  0.02714832  0.43008154     1.88940
O32         O  0.42547116  0.86850325  0.42704395    -0.73880
O33         O  0.31542685  0.02801203  0.58281252    -0.53140
O34         O  0.31005010  0.03928162  0.45743696    -0.97820
O35         O  0.41898525  0.04182819  0.33524662    -0.55040
O36         O  0.37567159  0.94774843  0.39545280    -0.74400
C37         C  0.38683452  0.89458474  0.39928576     0.97950
O38         O  0.53375040  0.79962065  0.51277330    -0.63220
O39         O  0.68044527  0.98568830  0.41094144    -0.58020
O40         O  0.55304011  0.85371467  0.41331396    -0.94700
O41         O  0.61456546  0.91576915  0.39127094    -0.93130
O42         O  0.68577236  0.95361830  0.55348638    -0.93480
O43         O  0.62525408  0.88083967  0.61002665    -0.92270
C44         C  0.59547267  0.87037904  0.38568853     1.16790
H45         H  0.62229321  0.05628757  0.50591202     0.32730
H46         H  0.49734117  0.90084792  0.59755369     0.43590
H47         H  0.49369051  0.94577113  0.38357106     0.37110
H48         H  0.38627417  0.09711486  0.51688269     0.33590
H49         H  0.60745476  0.95934584  0.68403885     0.25380
H50         H  0.30200816  0.02087152  0.61961426     0.31320
H51         H  0.29092912  0.02729981  0.42780230     0.37230
H52         H  0.70403773  0.96157258  0.58522349     0.31690
H53         H  0.68944331  0.00599083  0.37755161     0.30560
H54         H  0.54069560  0.06281930  0.33302471     0.32250
H55         H  0.38115002  0.03698971  0.32366362     0.31210
H56         H  0.61196894  0.85437405  0.58730349     0.35210
H57         H  0.57509394  0.79951595  0.50473849     0.27940
H58         H  0.47881561  0.22440307  0.52095241     0.32180
H59         H  0.33395128  0.11283413  0.38177787     0.35030
H60         H  0.69536666  0.00622169  0.43797749     0.27640
H61         H  0.52954233  0.79794305  0.55142109     0.40510
H62         H  0.44516109  0.98370434  0.68725316     0.30560
H63         H  0.54855859  0.99624925  0.68158122     0.38180
H64         H  0.44432492  0.00923184  0.32242217     0.30030
H65         H  0.31102392  0.06890205  0.57794567     0.30100
H66         H  0.42793700  0.20357550  0.49530223     0.30360
Zr67       Zr  0.89133190  0.48829447  0.48295590     2.17510
O68         O  0.79250911  0.51939217  0.51002399    -0.51990
O69         O  0.87038908  0.42324803  0.42138096    -0.75200
O70         O  0.84610330  0.55225061  0.41652751    -0.81980
O71         O  0.91252844  0.39146155  0.60396410    -0.83730
O72         O  0.91461434  0.60171291  0.37962490    -0.79350
O73         O  0.84571435  0.42691064  0.54761147    -0.90990
O74         O  0.95214290  0.38520331  0.37903407    -0.76950
O75         O  0.96098577  0.49383520  0.41226771    -0.86440
O76         O  0.96135239  0.40962920  0.49243628    -0.86130
O77         O  0.92813523  0.57471736  0.49071885    -0.72890
O78         O  0.92986001  0.49728589  0.56548266    -0.85020
Zr79       Zr  0.10943987  0.50809719  0.51314860     2.26420
Zr80       Zr  0.00084289  0.57711023  0.42172605     2.06270
Zr81       Zr  0.00162368  0.41944712  0.57314856     2.10050
Zr82       Zr  0.03065485  0.41553416  0.42195758     1.78760
O83         O  0.98793909  0.41395436  0.66798338    -0.93830
O84         O  0.05247481  0.43227733  0.32881110    -0.41640
O85         O  0.07298151  0.42190728  0.50366480    -0.78270
O86         O  0.07224295  0.49913316  0.42958349    -0.96960
O87         O  0.03955314  0.58656521  0.50281733    -0.90260
O88         O  0.03852287  0.50391220  0.58256362    -0.93100
C89         C  0.89778728  0.39182815  0.38721812     1.00650
C90         C  0.86215776  0.39756146  0.58855223     1.13580
C91         C  0.86410369  0.58918192  0.38409010     1.04360
O92         O  0.02787025  0.57569871  0.32858588    -0.95260
O93         O  0.08654403  0.61826233  0.40455607    -0.91000
O94         O  0.15558508  0.57314064  0.45443073    -0.84150
C95         C  0.13727378  0.60970888  0.41939850     1.11000
O96         O  0.87432527  0.62111238  0.60490121    -0.97230
Zr97       Zr  0.96904413  0.58217755  0.57213498     1.88940
O98         O  0.12975412  0.57875617  0.56888165    -0.73880
O99         O  0.97791277  0.67769248  0.41966561    -0.53140
O100        O  0.95155318  0.68063451  0.54713326    -0.97820
O101        O  0.95233783  0.56952849  0.66659700    -0.55040
O102        O  0.04755568  0.62094250  0.60624279    -0.74400
C103        C  0.10191856  0.61430717  0.59915058     0.97950
O104        O  0.20545607  0.46652255  0.48718615    -0.63220
O105        O  0.02121613  0.31906350  0.56867967    -0.58020
O106        O  0.15248514  0.45516213  0.58771225    -0.94700
O107        O  0.08878929  0.39665143  0.61497497    -0.93130
O108        O  0.04127596  0.31583456  0.44124873    -0.93480
O109        O  0.12389661  0.37019737  0.39241504    -0.92270
C110        C  0.13553691  0.41630233  0.61846952     1.16790
H111        H  0.94479020  0.37549751  0.49275753     0.32730
H112        H  0.10182723  0.50149623  0.40213968     0.43590
H113        H  0.05414512  0.50453106  0.61618336     0.37110
H114        H  0.89834960  0.60532510  0.48612897     0.33590
H115        H  0.05117910  0.39621674  0.31336579     0.25380
H116        H  0.97522514  0.68909163  0.38219868     0.31320
H117        H  0.96079479  0.69979878  0.57776459     0.37230
H118        H  0.03407010  0.29978436  0.40818794     0.31690
H119        H  0.02718299  0.30525827  0.60514907     0.30560
H120        H  0.99076962  0.37383309  0.67777420     0.32250
H121        H  0.96506687  0.60221236  0.68112113     0.31210
H122        H  0.15106554  0.39236753  0.40615765     0.35210
H123        H  0.20549640  0.42635408  0.49557074     0.27940
H124        H  0.77010546  0.51050320  0.48124775     0.32180
H125        H  0.88007422  0.65217267  0.62630599     0.35030
H126        H  0.98462210  0.30697095  0.56108478     0.27640
H127        H  0.20766450  0.46974465  0.44852678     0.40510
H128        H  0.99734049  0.55938048  0.31303263     0.30560
H129        H  0.01853579  0.45611297  0.31640329     0.38180
H130        H  0.98043256  0.53801989  0.67748933     0.30030
H131        H  0.93843568  0.68485978  0.43496221     0.30100
H132        H  0.78924123  0.56036549  0.50860907     0.30360
Zr133      Zr  0.51558075  0.51533511  0.10156114     2.17510
O134        O  0.48116744  0.48985637  0.19009941    -0.51990
O135        O  0.57937052  0.57825318  0.12576137    -0.75200
O136        O  0.58583370  0.44835861  0.14550259    -0.81980
O137        O  0.39078083  0.62686429  0.07970862    -0.83730
O138        O  0.63061709  0.39206693  0.08370418    -0.79350
O139        O  0.44329004  0.58328433  0.14372584    -0.90990
O140        O  0.62639273  0.61034113  0.05250395    -0.76950
O141        O  0.59590359  0.50221001  0.04068790    -0.86440
O142        O  0.50732745  0.59129056  0.03885319    -0.86130
O143        O  0.50971416  0.42844567  0.06341742    -0.72890
O144        O  0.42793964  0.51056476  0.06142910    -0.85020
Zr145      Zr  0.49504005  0.48932539  0.89731837     2.26420
Zr146      Zr  0.58955034  0.41737053  0.00128128     2.06270
Zr147      Zr  0.42133498  0.58632399  0.99818687     2.10050
Zr148      Zr  0.58685021  0.57765892  0.97777600     1.78760
O149        O  0.31948671  0.58160000  0.00827070    -0.93830
O150        O  0.68950633  0.55549399  0.96333101    -0.41640
O151        O  0.50048296  0.57574697  0.93565094    -0.78270
O152        O  0.58328462  0.49255669  0.93703514    -0.96960
O153        O  0.50409368  0.41278969  0.95944754    -0.90260
O154        O  0.41499594  0.50198630  0.95812441    -0.93100
C155        C  0.61564178  0.60706624  0.10199291     1.00650
C156        C  0.40267510  0.61934859  0.12742865     1.13580
C157        C  0.62239363  0.40752578  0.13068309     1.04360
O158        O  0.69241559  0.40782463  0.98500257    -0.95260
O159        O  0.61692004  0.37627320  0.91900302    -0.91000
O160        O  0.55989350  0.41612908  0.85640268    -0.84150
C161        C  0.60074863  0.38051004  0.87232340     1.11000
O162        O  0.38637366  0.38985638  0.10378751    -0.97230
Zr163      Zr  0.42413096  0.42541836  0.01968337     1.88940
O164        O  0.43280394  0.42708553  0.86902895    -0.73880
O165        O  0.58735856  0.31838256  0.01948523    -0.53140
O166        O  0.45025115  0.32534689  0.02824604    -0.97820
O167        O  0.32076203  0.44380353  0.03117896    -0.55040
O168        O  0.38921833  0.39085575  0.94220475    -0.74400
C169        C  0.39845089  0.39596250  0.89234440     0.97950
O170        O  0.53256381  0.52107593  0.81167792    -0.63220
O171        O  0.41300526  0.68693576  0.98649970    -0.58020
O172        O  0.42468203  0.55683195  0.85478497    -0.94700
O173        O  0.38753216  0.61873122  0.91495329    -0.93130
O174        O  0.56379853  0.67798266  0.96857500    -0.93480
O175        O  0.62327290  0.61515703  0.89416397    -0.92270
C176        C  0.39254627  0.60095635  0.86888985     1.16790
H177        H  0.50590888  0.62619833  0.05517611     0.32730
H178        H  0.61469395  0.48719656  0.91114676     0.43590
H179        H  0.37991413  0.50424562  0.94079901     0.37110
H180        H  0.51297159  0.39891289  0.09020358     0.33590
H181        H  0.70459354  0.59109033  0.96619065     0.25380
H182        H  0.62642635  0.30364289  0.02873948     0.31320
H183        H  0.41761477  0.30948235  0.01588429     0.37230
H184        H  0.59886363  0.69268732  0.97679086     0.31690
H185        H  0.37300526  0.70025086  0.99739268     0.30560
H186        H  0.30211620  0.61269462  0.98570042     0.32250
H187        H  0.30714877  0.40859235  0.02364410     0.31210
H188        H  0.60563190  0.59602393  0.86780429     0.35210
H189        H  0.52597362  0.56204050  0.81175396     0.27940
H190        H  0.51073169  0.49772423  0.21293817     0.32180
H191        H  0.36522533  0.35927795  0.09590941     0.35030
H192        H  0.43559254  0.69910232  0.01362842     0.27640
H193        H  0.57436601  0.51212642  0.81247489     0.40510
H194        H  0.70586164  0.43050950  0.01117021     0.30560
H195        H  0.70159990  0.53315411  0.99498580     0.38180
H196        H  0.30896085  0.46943973  0.00147891     0.30030
H197        H  0.56401168  0.31537295  0.05267126     0.30100
H198        H  0.48333806  0.44895114  0.19156091     0.30360
Zr199      Zr  0.02418948  0.01850290  0.89165699     2.17510
O200        O  0.01457814  0.99843928  0.80095839    -0.51990
O201        O  0.09299126  0.08271729  0.86232435    -0.75200
O202        O  0.95140665  0.08357470  0.84804409    -0.81980
O203        O  0.11981311  0.87962420  0.91147033    -0.83730
O204        O  0.88564016  0.11982609  0.90969113    -0.79350
O205        O  0.08688221  0.94301710  0.84853678    -0.90990
O206        O  0.12356448  0.11614776  0.93412181    -0.76950
O207        O  0.00737607  0.09145107  0.95124241    -0.86440
O208        O  0.09791409  0.00149838  0.95120642    -0.86130
O209        O  0.93164317  0.01122806  0.93497469    -0.72890
O210        O  0.01411163  0.93006650  0.93578404    -0.85020
Zr211      Zr  0.97980110  0.98015225  0.09990795     2.26420
Zr212      Zr  0.91605207  0.08423201  0.99537607     2.06270
Zr213      Zr  0.08735901  0.91436794  0.99607277     2.10050
Zr214      Zr  0.08068715  0.07340383  0.01100290     1.78760
O215        O  0.08812012  0.81421800  0.00166046    -0.93830
O216        O  0.06070540  0.17268683  0.02292128    -0.41640
O217        O  0.07209345  0.98639246  0.05680777    -0.78270
O218        O  0.98996068  0.06864832  0.05554862    -0.96960
O219        O  0.90586372  0.99680804  0.04043184    -0.90260
O220        O  0.99668163  0.90718448  0.04057663    -0.93100
C221        C  0.12332180  0.11349516  0.88453828     1.00650
C222        C  0.11565832  0.89677771  0.86357475     1.13580
C223        C  0.90482001  0.11393166  0.86205066     1.04360
O224        O  0.91332687  0.18449747  0.99455179    -0.95260
O225        O  0.87749750  0.11626383  0.08062894    -0.91000
O226        O  0.91545380  0.05433993  0.14284929    -0.84150
C227        C  0.88392627  0.09919275  0.12845323     1.11000
O228        O  0.89269252  0.89598857  0.89902822    -0.97230
Zr229      Zr  0.92328944  0.92428478  0.98096634     1.88940
O230        O  0.91511040  0.91171392  0.12959210    -0.73880
O231        O  0.81319133  0.08630804  0.99776901    -0.53140
O232        O  0.82165253  0.95244270  0.97440203    -0.97820
O233        O  0.94314777  0.82473780  0.96972446    -0.55040
O234        O  0.87924419  0.88200138  0.05804312    -0.74400
C235        C  0.88322220  0.88220874  0.10747397     0.97950
O236        O  0.98919846  0.00264798  0.18995964    -0.63220
O237        O  0.19076701  0.90864052  0.99142391    -0.58020
O238        O  0.05641465  0.91914317  0.14253160    -0.94700
O239        O  0.12146811  0.88286224  0.08051553    -0.93130
O240        O  0.18222717  0.04632583  0.01886325    -0.93480
O241        O  0.11304391  0.10186321  0.09196125    -0.92270
C242        C  0.10340566  0.88956999  0.12816194     1.16790
H243        H  0.13492928  0.00079282  0.93306731     0.32730
H244        H  0.98571984  0.09753625  0.08018653     0.43590
H245        H  0.99687594  0.87146422  0.05896526     0.37110
H246        H  0.90274153  0.01549623  0.90992408     0.33590
H247        H  0.09781131  0.18674975  0.01568416     0.25380
H248        H  0.79837616  0.12595571  0.99196209     0.31320
H249        H  0.80338480  0.91968817  0.98750996     0.37230
H250        H  0.19976372  0.08035231  0.00883107     0.31690
H251        H  0.20441429  0.86843925  0.99340472     0.30560
H252        H  0.12887729  0.79900527  0.00121718     0.32250
H253        H  0.90717834  0.80999420  0.98105695     0.31210
H254        H  0.09569158  0.07831243  0.11962944     0.35210
H255        H  0.98724195  0.96772240  0.21129004     0.27940
H256        H  0.02009824  0.03295088  0.78005396     0.32180
H257        H  0.86115143  0.87391011  0.90878737     0.35030
H258        H  0.20189450  0.92101137  0.95525258     0.27640
H259        H  0.02886011  0.01057961  0.19128460     0.40510
H260        H  0.93548482  0.19432976  0.96210002     0.30560
H261        H  0.03828004  0.18758601  0.99299523     0.38180
H262        H  0.96944829  0.81030222  0.99699745     0.30030
H263        H  0.80582845  0.06895882  0.96543795     0.30100
H264        H  0.97406732  0.99395041  0.79848879     0.30360
C265        C  0.73796829  0.73565545  0.23254905    -0.03150
C266        C  0.74228507  0.23935546  0.71974260    -0.03150
C267        C  0.24598568  0.73376627  0.72121570    -0.03150
C268        C  0.26226375  0.27079846  0.76813441    -0.03150
C269        C  0.75735373  0.25506190  0.27911207    -0.03150
C270        C  0.25334625  0.76010481  0.27918132    -0.03150
C271        C  0.11528063  0.82705803  0.20785099    -0.09820
C272        C  0.13947281  0.86039440  0.16879995     0.06380
C273        C  0.19860148  0.86093334  0.16620362    -0.03590
C274        C  0.23188361  0.82948864  0.20281531    -0.08040
C275        C  0.20864640  0.79582636  0.24380768     0.05490
C276        C  0.14848106  0.79302793  0.24335271    -0.03060
Br277      Br  0.10543874  0.73993293  0.28044964    -0.02760
H278        H  0.07010814  0.82454052  0.20830580     0.09400
H279        H  0.27726665  0.83146040  0.19951684     0.07420
Br280      Br  0.23643591  0.90633470  0.11520971    -0.03180
C281        C  0.88398686  0.17162832  0.19346547    -0.09820
C282        C  0.85447975  0.13496193  0.16963482     0.06380
C283        C  0.79899292  0.12983496  0.18893228    -0.03590
C284        C  0.77262052  0.16477738  0.22745168    -0.08040
C285        C  0.79726205  0.20948981  0.24561662     0.05490
C286        C  0.85789676  0.20530443  0.23359155    -0.03060
Br287      Br  0.91375254  0.22135499  0.27962102    -0.02760
H288        H  0.92914223  0.17078274  0.18353629     0.09400
H289        H  0.73391260  0.15344561  0.24628842     0.07420
Br290      Br  0.75840359  0.07390092  0.16538530    -0.03180
C291        C  0.20301984  0.17099031  0.87832908    -0.09820
C292        C  0.16142039  0.14872855  0.85267068     0.06380
C293        C  0.15869296  0.16095372  0.79853159    -0.03590
C294        C  0.19281281  0.19855007  0.77338737    -0.08040
C295        C  0.22919167  0.22720938  0.80040809     0.05490
C296        C  0.23823511  0.20723706  0.85295097    -0.03060
Br297      Br  0.30213866  0.21665670  0.89232938    -0.02760
H298        H  0.20991624  0.15852204  0.91879115     0.09400
H299        H  0.18796811  0.20798991  0.73238150     0.07420
Br300      Br  0.10806144  0.13070672  0.75611963    -0.03180
C301        C  0.21470431  0.83598224  0.75174301    -0.09820
C302        C  0.20864052  0.77839788  0.75675556     0.06380
C303        C  0.17066397  0.76261893  0.79909731    -0.03590
C304        C  0.14021262  0.80214083  0.83133354    -0.08040
C305        C  0.14526092  0.85862363  0.82416089     0.05490
C306        C  0.18274440  0.87546655  0.78356334    -0.03060
Br307      Br  0.19558418  0.95150080  0.77264545    -0.02760
H308        H  0.24593990  0.85167362  0.72459864     0.09400
H309        H  0.11223244  0.78832177  0.86310300     0.07420
Br310      Br  0.15657411  0.68805175  0.81762950    -0.03180
C311        C  0.84647843  0.20986689  0.75001736    -0.09820
C312        C  0.78866806  0.19987289  0.75109750     0.06380
C313        C  0.77447486  0.15376417  0.78467839    -0.03590
C314        C  0.81364256  0.12615294  0.81886071    -0.08040
C315        C  0.86812070  0.14114513  0.82091482     0.05490
C316        C  0.88488354  0.18254908  0.78528365    -0.03060
Br317      Br  0.95819528  0.20691431  0.78669748    -0.02760
H318        H  0.86306425  0.23975231  0.72275078     0.09400
H319        H  0.80065332  0.09348610  0.84563759     0.07420
Br320      Br  0.70028602  0.12970323  0.79361539    -0.03180
C321        C  0.79071314  0.84658171  0.12947901    -0.09820
C322        C  0.84787902  0.84558017  0.13999212     0.06380
C323        C  0.87094086  0.80563593  0.17688329    -0.03590
C324        C  0.83662639  0.76904167  0.20345069    -0.08040
C325        C  0.77719430  0.77259892  0.19712701     0.05490
C326        C  0.75566792  0.81117935  0.15677771    -0.03060
Br327      Br  0.67788293  0.82244729  0.13804069    -0.02760
H328        H  0.77274845  0.87596317  0.09985308     0.09400
H329        H  0.85786122  0.73762508  0.22914497     0.07420
Br330      Br  0.95015913  0.79676101  0.19013260    -0.03180
C331        C  0.27933553  0.71377409  0.19062288    -0.09820
C332        C  0.29736989  0.72329454  0.24071165     0.06380
C333        C  0.34982687  0.68962264  0.25364185    -0.03590
C334        C  0.38381668  0.65891294  0.21562456    -0.08040
C335        C  0.36636828  0.65489919  0.16537166     0.05490
C336        C  0.31254617  0.68267400  0.15348080    -0.03060
Br337      Br  0.27702297  0.67857316  0.08886232    -0.02760
H338        H  0.23674279  0.72809565  0.17957335     0.09400
H339        H  0.42339465  0.63500443  0.22651352     0.07420
Br340      Br  0.37569442  0.66658519  0.32144777    -0.03180
C341        C  0.31227756  0.72096150  0.79440621    -0.09820
C342        C  0.28081359  0.69432319  0.76073355     0.06380
C343        C  0.28403698  0.63500808  0.76778302    -0.03590
C344        C  0.32340199  0.60589580  0.80082801    -0.08040
C345        C  0.35668039  0.63330519  0.83069322     0.05490
C346        C  0.34973741  0.69149638  0.82840698    -0.03060
Br347      Br  0.39502835  0.73352102  0.86596095    -0.02760
H348        H  0.31072913  0.76562982  0.79170650     0.09400
H349        H  0.32592099  0.56116000  0.80555206     0.07420
Br350      Br  0.23389959  0.58751231  0.74316602    -0.03180
C351        C  0.62975414  0.35547185  0.78077494    -0.09820
C352        C  0.63296748  0.34276038  0.83437295     0.06380
C353        C  0.66974503  0.29570407  0.85055579    -0.03590
C354        C  0.70560095  0.26625914  0.81415065    -0.08040
C355        C  0.70207358  0.27627641  0.75953657     0.05490
C356        C  0.66235805  0.32296353  0.74364750    -0.03060
Br357      Br  0.64701317  0.34651690  0.67272169    -0.02760
H358        H  0.60148715  0.39128187  0.76733377     0.09400
H359        H  0.73593896  0.23509810  0.83102277     0.07420
Br360      Br  0.67226813  0.26520015  0.92133949    -0.03180
C361        C  0.71402062  0.35438302  0.24377230    -0.09820
C362        C  0.71909940  0.29543488  0.24029606     0.06380
C363        C  0.68266951  0.27738591  0.20390283    -0.03590
C364        C  0.65574784  0.31490094  0.16748696    -0.08040
C365        C  0.65496532  0.37191106  0.16978357     0.05490
C366        C  0.68285313  0.39184809  0.20952703    -0.03060
Br367      Br  0.68107364  0.46979924  0.21799082    -0.02760
H368        H  0.73197258  0.37311175  0.27465533     0.09400
H369        H  0.63030382  0.29960137  0.13938523     0.07420
Br370      Br  0.64822275  0.21003631  0.20769312    -0.03180
C371        C  0.64588578  0.70908476  0.19728862    -0.09820
C372        C  0.70624938  0.70355387  0.19505514     0.06380
C373        C  0.73553203  0.66857573  0.15648808    -0.03590
C374        C  0.70531954  0.63760813  0.12657852    -0.08040
C375        C  0.64615438  0.64022891  0.13358227     0.05490
C376        C  0.61638276  0.67707520  0.16858188    -0.03060
Br377      Br  0.53473646  0.68810991  0.17677559    -0.02760
H378        H  0.61985716  0.73881850  0.22099484     0.09400
H379        H  0.72835306  0.61030879  0.09833125     0.07420
Br380      Br  0.81677874  0.65758936  0.14366681    -0.03180
C381        C  0.35726314  0.30632087  0.78804647    -0.09820
C382        C  0.29861516  0.30349674  0.80162271     0.06380
C383        C  0.27396277  0.33698108  0.84336501    -0.03590
C384        C  0.30749987  0.36580105  0.87195251    -0.08040
C385        C  0.36567248  0.36495773  0.85981829     0.05490
C386        C  0.39052178  0.33527723  0.81696329    -0.03060
Br387      Br  0.47041838  0.33027436  0.79742320    -0.02760
H388        H  0.37836794  0.28725064  0.75391989     0.09400
H389        H  0.28766338  0.38961495  0.90420039     0.07420
Br390      Br  0.19587029  0.34461322  0.86795347    -0.03180
C391        C  0.19527576  0.64059112  0.61916824    -0.09820
C392        C  0.13595770  0.64886113  0.62769151     0.06380
C393        C  0.11223203  0.68912522  0.66309437    -0.03590
C394        C  0.14776792  0.71711903  0.69037951    -0.08040
C395        C  0.20784095  0.70416693  0.68704154     0.05490
C396        C  0.23086964  0.66718973  0.64741007    -0.03060
Br397      Br  0.31001435  0.64424855  0.63059858    -0.02760
H398        H  0.21503595  0.61146297  0.59100426     0.09400
H399        H  0.12662971  0.74917425  0.71452865     0.07420
Br400      Br  0.03193751  0.70925962  0.67742343    -0.03180
C401        C  0.23013294  0.66228818  0.31083470    -0.09820
C402        C  0.22455078  0.72003155  0.31906237     0.06380
C403        C  0.19286053  0.73842866  0.36560966    -0.03590
C404        C  0.17007208  0.70033507  0.40110922    -0.08040
C405        C  0.17634137  0.64400844  0.39154524     0.05490
C406        C  0.20669040  0.62501481  0.34626685    -0.03060
Br407      Br  0.21183828  0.54900393  0.32829331    -0.02760
H408        H  0.25048005  0.64489421  0.27563440     0.09400
H409        H  0.14363646  0.71532992  0.43471077     0.07420
Br410      Br  0.17139453  0.81473330  0.38132547    -0.03180
C411        C  0.79489127  0.32827270  0.59575272    -0.09820
C412        C  0.82273568  0.36546992  0.62004983     0.06380
C413        C  0.82091834  0.36412126  0.67478267    -0.03590
C414        C  0.79541178  0.32317680  0.70401670    -0.08040
C415        C  0.77004299  0.28191325  0.68073072     0.05490
C416        C  0.76722474  0.28797010  0.62457219    -0.03060
Br417      Br  0.72203316  0.25274378  0.58025040    -0.02760
H418        H  0.79530152  0.33028305  0.55344978     0.09400
H419        H  0.79601278  0.32320678  0.74613763     0.07420
Br420      Br  0.85201144  0.41809694  0.71190984    -0.03180
C421        C  0.13791485  0.36701564  0.70453772    -0.09820
C422        C  0.16848438  0.39201694  0.66305872     0.06380
C423        C  0.22772172  0.38807933  0.66454910    -0.03590
C424        C  0.25492994  0.35312032  0.70298150    -0.08040
C425        C  0.22492636  0.31842134  0.73848634     0.05490
C426        C  0.16422674  0.33004637  0.74140541    -0.03060
Br427      Br  0.10933170  0.30082923  0.79074725    -0.02760
H428        H  0.09189228  0.37387601  0.70672618     0.09400
H429        H  0.30091654  0.34822885  0.70101234     0.07420
Br430      Br  0.27453291  0.42250987  0.61191151    -0.03180
C431        C  0.77509786  0.63694238  0.27096411    -0.09820
C432        C  0.77321933  0.69556128  0.27156338     0.06380
C433        C  0.79891218  0.71641863  0.31390668    -0.03590
C434        C  0.82371051  0.68029787  0.35203310    -0.08040
C435        C  0.82534665  0.62311307  0.35009271     0.05490
C436        C  0.80080541  0.60120750  0.30945324    -0.03060
Br437      Br  0.80311858  0.52276572  0.30395377    -0.02760
H438        H  0.75460776  0.61750810  0.24227385     0.09400
H439        H  0.84408496  0.69706331  0.38296740     0.07420
Br440      Br  0.80444768  0.79326097  0.32417768    -0.03180
C441        C  0.82354880  0.33099052  0.38815753    -0.09820
C442        C  0.86349642  0.35836866  0.35866843     0.06380
C443        C  0.86640817  0.35559507  0.30413628    -0.03590
C444        C  0.83124386  0.32328815  0.28064501    -0.08040
C445        C  0.79309317  0.29130275  0.31017945     0.05490
C446        C  0.78715819  0.30007463  0.36553476    -0.03060
Br447      Br  0.72782702  0.28318745  0.41664969    -0.02760
H448        H  0.81936721  0.33540941  0.43008322     0.09400
H449        H  0.83461155  0.32201651  0.23845856     0.07420
Br450      Br  0.91632726  0.39623308  0.26001841    -0.03180
C451        C  0.37792040  0.78495976  0.63866715    -0.09820
C452        C  0.34995446  0.82572479  0.60634644     0.06380
C453        C  0.29050426  0.83272158  0.60754321    -0.03590
C454        C  0.25984528  0.80061844  0.64299324    -0.08040
C455        C  0.28675107  0.76256408  0.68041309     0.05490
C456        C  0.34824723  0.75277339  0.67483893    -0.03060
Br457      Br  0.40026655  0.69413944  0.70585872    -0.02760
H458        H  0.42404898  0.77906175  0.63647197     0.09400
H459        H  0.21387175  0.80772353  0.64333315     0.07420
Br460      Br  0.24944098  0.88637220  0.56190394    -0.03180
C461        C  0.70092478  0.15250067  0.38536232    -0.09820
C462        C  0.64294957  0.17242974  0.39079380     0.06380
C463        C  0.62186765  0.21990276  0.36150502    -0.03590
C464        C  0.65869723  0.24600703  0.32643848    -0.08040
C465        C  0.71745089  0.22505028  0.31847151     0.05490
C466        C  0.73815787  0.17806439  0.35065229    -0.03060
Br467      Br  0.81664712  0.14784589  0.35424629    -0.02760
H468        H  0.71741172  0.11582787  0.40825206     0.09400
H469        H  0.64042663  0.28354157  0.30625098     0.07420
Br470      Br  0.54269706  0.24874434  0.36562977    -0.03180
C471        C  0.64784302  0.20864724  0.69489489    -0.09820
C472        C  0.70817104  0.20133021  0.69086271     0.06380
C473        C  0.73529902  0.15612289  0.66126676    -0.03590
C474        C  0.70264337  0.12290256  0.63618061    -0.08040
C475        C  0.64327868  0.13440665  0.63750480     0.05490
C476        C  0.61602218  0.17770175  0.66726613    -0.03060
Br477      Br  0.53484097  0.19626666  0.67311264    -0.02760
H478        H  0.62351853  0.23850601  0.71940981     0.09400
H479        H  0.72400539  0.08965095  0.61302775     0.07420
Br480      Br  0.81626250  0.14044711  0.64726193    -0.03180
C481        C  0.34413872  0.19480479  0.74738058    -0.09820
C482        C  0.30027544  0.23400142  0.72771001     0.06380
C483        C  0.29190195  0.23291387  0.67289005    -0.03590
C484        C  0.33273747  0.20337534  0.64019082    -0.08040
C485        C  0.37741717  0.16773544  0.66038545     0.05490
C486        C  0.38185584  0.16173512  0.71457439    -0.03060
Br487      Br  0.43820641  0.10845453  0.74560866    -0.02760
H488        H  0.34968126  0.19037309  0.78884767     0.09400
H489        H  0.32617221  0.20348024  0.59880608     0.07420
Br490      Br  0.22247341  0.25607480  0.63832449    -0.03180
C491        C  0.62588469  0.77953869  0.34641015    -0.09820
C492        C  0.62540906  0.83683059  0.34388651     0.06380
C493        C  0.65618532  0.86163550  0.30184715    -0.03590
C494        C  0.69028062  0.82908472  0.26684435    -0.08040
C495        C  0.69398333  0.77094054  0.26954929     0.05490
C496        C  0.65878018  0.74652668  0.30998813    -0.03060
Br497      Br  0.65098227  0.66889862  0.31970221    -0.02760
H498        H  0.60141001  0.76003168  0.37765758     0.09400
H499        H  0.71593858  0.85113359  0.23915447     0.07420
Br500      Br  0.65530478  0.94012683  0.28730479    -0.03180
C501        C  0.31931855  0.88745647  0.33046469    -0.09820
C502        C  0.35265787  0.86124897  0.36981586     0.06380
C503        C  0.34731682  0.80534860  0.38359009    -0.03590
C504        C  0.31373477  0.77675514  0.35512217    -0.08040
C505        C  0.28507223  0.79989932  0.31095486     0.05490
C506        C  0.28192022  0.85951818  0.30510719    -0.02760
Br507      Br  0.21765977  0.91154535  0.28444829    -0.02760
H508        H  0.31798426  0.93180032  0.32292216     0.09400
H509        H  0.30612459  0.73666911  0.37152977     0.07420
Br510      Br  0.37917472  0.76548471  0.44390987    -0.03180
loop_ 
_geom_bond_atom_site_label_1 
_geom_bond_atom_site_label_2 
_geom_bond_distance 
_geom_bond_site_symmetry_2 
_ccdc_geom_bond_type 
Zr1           O2   2.437       .  S
Zr1           O3   2.427       .  S
Zr1           O4   2.439       .  S
Zr1           O7   2.463       .  S
Zr1           O9   2.382       .  S
Zr1          O10   2.375       .  S
Zr1          O11   2.413       .  S
Zr1          O12   2.397       .  S
O2           H58   0.990       .  S
O2           H66   0.990       .  S
O3           C23   1.284       .  A
O4           C25   1.286       .  A
O5          Zr15   2.369       .  S
O5           C24   1.272       .  A
O6          Zr14   2.400   1_545  S
O6           C25   1.278       .  A
O7           C24   1.290       .  A
O8          Zr16   2.429   1_545  S
O8           C23   1.283       .  A
O9          Zr14   2.383   1_545  S
O9          Zr16   2.370   1_545  S
O10         Zr15   2.369       .  S
O10         Zr16   2.370   1_545  S
O10          H45   0.966       .  S
O11         Zr14   2.394   1_545  S
O11         Zr31   2.402       .  S
O11          H48   0.966       .  S
O12         Zr15   2.377       .  S
O12         Zr31   2.405       .  S
Zr13         O38   2.437       .  S
Zr13         O32   2.415       .  S
Zr13         O40   2.460       .  S
Zr13         O28   2.446       .  S
Zr13         O19   2.398       .  S
Zr13         O20   2.410       .  S
Zr13         O21   2.379       .  S
Zr13         O22   2.376       .  S
Zr14         O33   2.439   1_565  S
Zr14         O26   2.435       .  S
Zr14         O27   2.402       .  S
Zr14         O20   2.392       .  S
Zr14         O21   2.378       .  S
Zr15         O17   2.435       .  S
Zr15         O39   2.441   1_545  S
Zr15         O41   2.364   1_545  S
Zr15         O19   2.383   1_545  S
Zr15         O22   2.369   1_545  S
Zr16         O42   2.435       .  S
Zr16         O43   2.435       .  S
Zr16         O18   2.437       .  S
Zr16         O19   2.395       .  S
Zr16         O20   2.400       .  S
O17          H54   0.990       .  S
O18          H49   0.990       .  S
O18          H63   0.990       .  S
O20          H46   0.966       .  S
O21         Zr31   2.365   1_565  S
O22         Zr31   2.371   1_565  S
O22          H47   0.966       .  S
C23         C475   1.474       .  S
C24         C462   1.466       .  S
C25         C485   1.459       .  S
O26          H62   0.990       .  S
O27          C29   1.279       .  A
O28          C29   1.288       .  A
C29         C452   1.464       .  S
O30         Zr31   2.439       .  S
O30          H59   0.990       .  S
Zr31         O34   2.437       .  S
Zr31         O35   2.440       .  S
Zr31         O36   2.444   1_545  S
O32          C37   1.280       .  A
O33          H50   0.990       .  S
O33          H65   0.990       .  S
O34          H51   0.990       .  S
O35          H55   0.990       .  S
O35          H64   0.989       .  S
O36          C37   1.287       .  A
C37         C502   1.492       .  S
O38          H57   0.990       .  S
O38          H61   0.990       .  S
O39          H53   0.990   1_565  S
O39          H60   0.990   1_565  S
O40          C44   1.290       .  A
O41          C44   1.270       .  A
O42          H52   0.990       .  S
O43          H56   0.990       .  S
C44         C492   1.474       .  S
Zr67         O68   2.438       .  S
Zr67         O69   2.424       .  S
Zr67         O70   2.449       .  S
Zr67         O73   2.464       .  S
Zr67         O75   2.383       .  S
Zr67         O76   2.379       .  S
Zr67         O77   2.410       .  S
Zr67         O78   2.400       .  S
O68         H124   0.990       .  S
O68         H132   0.990       .  S
O69          C89   1.284       .  A
O70          C91   1.286       .  A
O71         Zr81   2.381   1_655  S
O71          C90   1.274       .  A
O72         Zr80   2.374   1_655  S
O72          C91   1.274       .  A
O73          C90   1.291       .  A
O74         Zr82   2.448   1_655  S
O74          C89   1.285       .  A
O75         Zr80   2.383   1_655  S
O75         Zr82   2.369   1_655  S
O76         Zr81   2.380   1_655  S
O76         Zr82   2.375   1_655  S
O76         H111   0.966       .  S
O77         Zr80   2.394   1_655  S
O77         Zr97   2.393       .  S
O77         H114   0.966       .  S
O78         Zr81   2.386   1_655  S
O78         Zr97   2.399       .  S
Zr79        O104   2.437       .  S
Zr79         O98   2.420       .  S
Zr79        O106   2.452       .  S
Zr79         O94   2.439       .  S
Zr79         O85   2.408       .  S
Zr79         O86   2.410       .  S
Zr79         O87   2.377       .  S
Zr79         O88   2.376       .  S
Zr80         O99   2.438   1_455  S
Zr80         O92   2.436       .  S
Zr80         O93   2.392       .  S
Zr80         O86   2.384       .  S
Zr80         O87   2.370       .  S
Zr81         O83   2.434   1_455  S
Zr81        O105   2.438       .  S
Zr81        O107   2.385       .  S
Zr81         O85   2.381       .  S
Zr81         O88   2.374       .  S
Zr82        O108   2.435       .  S
Zr82        O109   2.435       .  S
Zr82         O84   2.436       .  S
Zr82         O85   2.411       .  S
Zr82         O86   2.404       .  S
O83         H120   0.990       .  S
O84         H115   0.990       .  S
O84         H129   0.990       .  S
O86         H112   0.966       .  S
O87         Zr97   2.369   1_455  S
O88         Zr97   2.368   1_455  S
O88         H113   0.965       .  S
C89         C442   1.482       .  S
C90         C412   1.471       .  S
C91         C435   1.456       .  S
O92         H128   0.990   1_455  S
O93          C95   1.277       .  A
O94          C95   1.285       .  A
C95         C405   1.456       .  S
O96         Zr97   2.439       .  S
O96         H125   0.990       .  S
Zr97        O100   2.437       .  S
Zr97        O101   2.441       .  S
Zr97        O102   2.436   1_655  S
O98         C103   1.284       .  A
O99         H116   0.990       .  S
O99         H131   0.990       .  S
O100        H117   0.990       .  S
O101        H121   0.990       .  S
O101        H130   0.989       .  S
O102        C103   1.283       .  A
C103        C392   1.496       .  S
O104        H123   0.990       .  S
O104        H127   0.990       .  S
O105        H119   0.990       .  S
O105        H126   0.990   1_455  S
O106        C110   1.286       .  A
O107        C110   1.278       .  A
O108        H118   0.990       .  S
O109        H122   0.990       .  S
C110        C422   1.483       .  S
Zr133       O134   2.438       .  S
Zr133       O135   2.429       .  S
Zr133       O136   2.460       .  S
Zr133       O139   2.464       .  S
Zr133       O141   2.384       .  S
Zr133       O142   2.380       .  S
Zr133       O143   2.410       .  S
Zr133       O144   2.407       .  S
O134        H190   0.990       .  S
O134        H198   0.990       .  S
O135        C155   1.284       .  A
O136        C157   1.289       .  A
O137       Zr147   2.395   1_554  S
O137        C156   1.275       .  A
O138       Zr146   2.406       .  S
O138        C157   1.280       .  A
O139        C156   1.291       .  A
O140       Zr148   2.415   1_554  S
O140        C155   1.280       .  A
O141       Zr146   2.382       .  S
O141       Zr148   2.375   1_554  S
O142       Zr147   2.379   1_554  S
O142       Zr148   2.374   1_554  S
O142        H177   0.966       .  S
O143       Zr146   2.392       .  S
O143       Zr163   2.403       .  S
O143        H180   0.966       .  S
O144       Zr147   2.384   1_554  S
O144       Zr163   2.406       .  S
Zr145       O170   2.440       .  S
Zr145       O164   2.427       .  S
Zr145       O172   2.452       .  S
Zr145       O160   2.436       .  S
Zr145       O151   2.399       .  S
Zr145       O152   2.408       .  S
Zr145       O153   2.381       .  S
Zr145       O154   2.377       .  S
Zr146       O165   2.438       .  S
Zr146       O158   2.435   1_554  S
Zr146       O159   2.404   1_554  S
Zr146       O152   2.391   1_554  S
Zr146       O153   2.381   1_554  S
Zr147       O149   2.435   1_556  S
Zr147       O171   2.437       .  S
Zr147       O173   2.391       .  S
Zr147       O151   2.386       .  S
Zr147       O154   2.379       .  S
Zr148       O174   2.436       .  S
Zr148       O175   2.435       .  S
Zr148       O150   2.436       .  S
Zr148       O151   2.393       .  S
Zr148       O152   2.391       .  S
O149        H186   0.990   1_554  S
O150        H181   0.990       .  S
O150        H195   0.990       .  S
O152        H178   0.966       .  S
O153       Zr163   2.367   1_556  S
O154       Zr163   2.373   1_556  S
O154        H179   0.966       .  S
C155        C375   1.467       .  S
C156        C335   1.494       .  S
C157        C365   1.480       .  S
O158        H194   0.990   1_556  S
O159        C161   1.279       .  A
O160        C161   1.286       .  A
C161        C352   1.483       .  S
O162       Zr163   2.439       .  S
O162        H191   0.990       .  S
Zr163       O166   2.437       .  S
Zr163       O167   2.440       .  S
Zr163       O168   2.443   1_554  S
O164        C169   1.283       .  A
O165        H182   0.990       .  S
O165        H197   0.990       .  S
O166        H183   0.990       .  S
O167        H187   0.990       .  S
O167        H196   0.989       .  S
O168        C169   1.287       .  A
C169        C385   1.482       .  S
O170        H189   0.990       .  S
O170        H193   0.990       .  S
O171        H185   0.990       .  S
O171        H192   0.990   1_556  S
O172        C176   1.289       .  A
O173        C176   1.277       .  A
O174        H184   0.990       .  S
O175        H188   0.990       .  S
C176        C345   1.469       .  S
Zr199       O200   2.441   1_545  S
Zr199       O201   2.463       .  S
Zr199       O202   2.469   1_455  S
Zr199       O205   2.473   1_545  S
Zr199       O207   2.390       .  S
Zr199       O208   2.385       .  S
Zr199       O209   2.420   1_455  S
Zr199       O210   2.410   1_545  S
O200        H256   0.990   1_565  S
O200        H264   0.990   1_455  S
O201        C221   1.288       .  A
O202        C223   1.289       .  A
O203       Zr213   2.418       .  S
O203        C222   1.283       .  A
O204       Zr212   2.440       .  S
O204        C223   1.286       .  A
O205        C222   1.292       .  A
O206       Zr214   2.407   1_556  S
O206        C221   1.280       .  A
O207       Zr212   2.403   1_455  S
O207       Zr214   2.382   1_556  S
O208       Zr213   2.392   1_545  S
O208       Zr214   2.374   1_556  S
O208        H243   0.966       .  S
O209       Zr212   2.404       .  S
O209       Zr229   2.391   1_545  S
O209        H246   0.965       .  S
O210       Zr213   2.388       .  S
O210       Zr229   2.398   1_455  S
Zr211       O236   2.440   1_565  S
Zr211       O230   2.471       .  S
Zr211       O238   2.469   1_655  S
Zr211       O226   2.469   1_565  S
Zr211       O217   2.408   1_655  S
Zr211       O218   2.414   1_565  S
Zr211       O219   2.387       .  S
Zr211       O220   2.386       .  S
Zr212       O231   2.436       .  S
Zr212       O224   2.435       .  S
Zr212       O225   2.446   1_556  S
Zr212       O218   2.398   1_556  S
Zr212       O219   2.398   1_546  S
Zr213       O215   2.435   1_556  S
Zr213       O237   2.439       .  S
Zr213       O239   2.416   1_556  S
Zr213       O217   2.392   1_556  S
Zr213       O220   2.393   1_456  S
Zr214       O240   2.436       .  S
Zr214       O241   2.435       .  S
Zr214       O216   2.437       .  S
Zr214       O217   2.391   1_545  S
Zr214       O218   2.385   1_455  S
O215        H252   0.990       .  S
O216        H247   0.990       .  S
O216        H261   0.990   1_554  S
O218        H244   0.965       .  S
O219       Zr229   2.380   1_554  S
O220       Zr229   2.380   1_554  S
O220        H245   0.966       .  S
C221        C292   1.501       .  S
C222        C305   1.491       .  S
C223        C315   1.487       .  S
O224        H260   0.990       .  S
O225        C227   1.287       .  A
O226        C227   1.291       .  A
C227        C282   1.488       .  S
O228       Zr229   2.439       .  S
O228        H257   0.990       .  S
Zr229       O232   2.437       .  S
Zr229       O233   2.440       .  S
Zr229       O234   2.418   1_556  S
O230        C235   1.291       .  A
O231        H248   0.990       .  S
O231        H263   0.990       .  S
O232        H249   0.990       .  S
O233        H253   0.990       .  S
O233        H262   0.989       .  S
O234        C235   1.280       .  A
C235        C322   1.489       .  S
O236        H255   0.990   1_545  S
O236        H259   0.991   1_655  S
O237        H251   0.990       .  S
O237        H258   0.990       .  S
O238        C242   1.290       .  A
O239        C242   1.282       .  A
O240        H250   0.990       .  S
O241        H254   0.990       .  S
C242        C272   1.485       .  S
C265        C325   1.588       .  S
C265        C372   1.566       .  S
C265        C432   1.564       .  S
C265        C495   1.568       .  S
C266        C312   1.594       .  S
C266        C355   1.586       .  S
C266        C415   1.577       .  S
C266        C472   1.559       .  S
C267        C302   1.598       .  S
C267        C342   1.559       .  S
C267        C395   1.572       .  S
C267        C455   1.577       .  S
C268        C295   1.570       .  S
C268        C382   1.577       .  S
C268        C425   1.560       .  S
C268        C482   1.570       .  S
C269        C285   1.611       .  S
C269        C362   1.601       .  S
C269        C445   1.586       .  S
C269        C465   1.557       .  S
C270        C275   1.584       .  S
C270        C332   1.609       .  S
C270        C402   1.561       .  S
C270        C505   1.596       .  S
C271        C272   1.396       .  A
C271        C276   1.407       .  A
C271        H278   1.083       .  S
C272        C273   1.405       .  A
C273        C274   1.399       .  A
C273       Br280   1.920       .  S
C274        C275   1.424       .  A
C274        H279   1.084       .  S
C275        C276   1.442       .  A
C276       Br277   1.925       .  S
C281        C282   1.398       .  A
C281        C286   1.413       .  A
C281        H288   1.084       .  S
C282        C283   1.396       .  A
C283        C284   1.403       .  A
C283       Br290   1.919       .  S
C284        C285   1.420       .  A
C284        H289   1.072       .  S
C285        C286   1.445       .  A
C286       Br287   1.930       .  S
C291        C292   1.408       .  A
C291        C296   1.401       .  A
C291        H298   1.083       .  S
C292        C293   1.410       .  A
C293        C294   1.404       .  A
C293       Br300   1.921       .  S
C294        C295   1.420       .  A
C294        H299   1.076       .  S
C295        C296   1.429       .  A
C296       Br297   1.928       .  S
C301        C302   1.428       .  A
C301        C306   1.409       .  A
C301        H308   1.076       .  S
C302        C303   1.434       .  A
C303        C304   1.401       .  A
C303       Br310   1.919       .  S
C304        C305   1.398       .  A
C304        H309   1.084       .  S
C305        C306   1.404       .  A
C306       Br307   1.920       .  S
C311        C312   1.426       .  A
C311        C316   1.407       .  A
C311        H318   1.075       .  S
C312        C313   1.439       .  A
C313        C314   1.403       .  A
C313       Br320   1.927       .  S
C314        C315   1.397       .  A
C314        H319   1.084       .  S
C315        C316   1.402       .  A
C316       Br317   1.918       .  S
C321        C322   1.401       .  A
C321        C326   1.404       .  A
C321        H328   1.084       .  S
C322        C323   1.403       .  A
C323        C324   1.405       .  A
C323       Br330   1.919       .  S
C324        C325   1.424       .  A
C324        H329   1.078       .  S
C325        C326   1.433       .  A
C326       Br327   1.923       .  S
C331        C332   1.425       .  A
C331        C336   1.390       .  A
C331        H338   1.078       .  S
C332        C333   1.447       .  A
C333        C334   1.409       .  A
C333       Br340   1.916       .  S
C334        C335   1.396       .  A
C334        H339   1.084       .  S
C335        C336   1.410       .  A
C336       Br337   1.927       .  S
C341        C342   1.419       .  A
C341        C346   1.392       .  A
C341        H348   1.083       .  S
C342        C343   1.439       .  A
C343        C344   1.401       .  A
C343       Br350   1.928       .  S
C344        C345   1.395       .  A
C344        H349   1.084       .  S
C345        C346   1.404       .  A
C346       Br347   1.921       .  S
C351        C352   1.399       .  A
C351        C356   1.401       .  A
C351        H358   1.084       .  S
C352        C353   1.408       .  A
C353        C354   1.387       .  A
C353       Br360   1.926       .  S
C354        C355   1.417       .  A
C354        H359   1.070       .  S
C355        C356   1.438       .  A
C356       Br357   1.923       .  S
C361        C362   1.434       .  A
C361        C366   1.405       .  A
C361        H368   1.077       .  S
C362        C363   1.442       .  A
C363        C364   1.396       .  A
C363       Br370   1.925       .  S
C364        C365   1.392       .  A
C364        H369   1.085       .  S
C365        C366   1.398       .  A
C366       Br367   1.920       .  S
C371        C372   1.421       .  A
C371        C376   1.389       .  A
C371        H378   1.077       .  S
C372        C373   1.428       .  A
C373        C374   1.401       .  A
C373       Br380   1.923       .  S
C374        C375   1.399       .  A
C374        H379   1.084       .  S
C375        C376   1.398       .  A
C376       Br377   1.923       .  S
C381        C382   1.424       .  A
C381        C386   1.402       .  A
C381        H388   1.078       .  S
C382        C383   1.431       .  A
C383        C384   1.399       .  A
C383       Br390   1.908       .  S
C384        C385   1.395       .  A
C384        H389   1.084       .  S
C385        C386   1.405       .  A
C386       Br387   1.921       .  S
C391        C392   1.402       .  A
C391        C396   1.396       .  A
C391        H398   1.083       .  S
C392        C393   1.413       .  A
C393        C394   1.400       .  A
C393       Br400   1.923       .  S
C394        C395   1.419       .  A
C394        H399   1.076       .  S
C395        C396   1.431       .  A
C396       Br397   1.918       .  S
C401        C402   1.423       .  A
C401        C406   1.391       .  A
C401        H408   1.078       .  S
C402        C403   1.431       .  A
C403        C404   1.398       .  A
C403       Br410   1.921       .  S
C404        C405   1.396       .  A
C404        H409   1.084       .  S
C405        C406   1.395       .  A
C406       Br407   1.922       .  S
C411        C412   1.390       .  A
C411        C416   1.402       .  A
C411        H418   1.085       .  S
C412        C413   1.403       .  A
C413        C414   1.393       .  A
C413       Br420   1.921       .  S
C414        C415   1.419       .  A
C414        H419   1.083       .  S
C415        C416   1.447       .  A
C416       Br417   1.928       .  S
C421        C422   1.404       .  A
C421        C426   1.390       .  A
C421        H428   1.083       .  S
C422        C423   1.402       .  A
C423        C424   1.401       .  A
C423       Br430   1.919       .  S
C424        C425   1.428       .  A
C424        H429   1.082       .  S
C425        C426   1.431       .  A
C426       Br427   1.932       .  S
C431        C432   1.425       .  A
C431        C436   1.397       .  A
C431        H438   1.075       .  S
C432        C433   1.433       .  A
C433        C434   1.387       .  A
C433       Br440   1.930       .  S
C434        C435   1.393       .  A
C434        H439   1.085       .  S
C435        C436   1.395       .  A
C436       Br437   1.919       .  S
C441        C442   1.390       .  A
C441        C446   1.396       .  A
C441        H448   1.085       .  S
C442        C443   1.403       .  A
C443        C444   1.408       .  A
C443       Br450   1.916       .  S
C444        C445   1.425       .  A
C444        H449   1.083       .  S
C445        C446   1.445       .  A
C446       Br447   1.929       .  S
C451        C452   1.387       .  A
C451        C456   1.396       .  A
C451        H458   1.085       .  S
C452        C453   1.400       .  A
C453        C454   1.397       .  A
C453       Br460   1.918       .  S
C454        C455   1.420       .  A
C454        H459   1.083       .  S
C455        C456   1.448       .  A
C456       Br457   1.934       .  S
C461        C462   1.400       .  A
C461        C466   1.393       .  A
C461        H468   1.085       .  S
C462        C463   1.398       .  A
C463        C464   1.399       .  A
C463       Br470   1.918       .  S
C464        C465   1.427       .  A
C464        H469   1.079       .  S
C465        C466   1.426       .  A
C466       Br467   1.919       .  S
C471        C472   1.419       .  A
C471        C476   1.390       .  A
C471        H478   1.074       .  S
C472        C473   1.432       .  A
C473        C474   1.404       .  A
C473       Br480   1.925       .  S
C474        C475   1.401       .  A
C474        H479   1.084       .  S
C475        C476   1.401       .  A
C476       Br477   1.921       .  S
C481        C482   1.417       .  A
C481        C486   1.396       .  A
C481        H488   1.080       .  S
C482        C483   1.438       .  A
C483        C484   1.393       .  A
C483       Br490   1.931       .  S
C484        C485   1.389       .  A
C484        H489   1.085       .  S
C485        C486   1.401       .  A
C486       Br487   1.919       .  S
C491        C492   1.393       .  A
C491        C496   1.398       .  A
C491        H498   1.084       .  S
C492        C493   1.415       .  A
C493        C494   1.381       .  A
C493       Br500   1.926       .  S
C494        C495   1.406       .  A
C494        H499   1.073       .  S
C495        C496   1.441       .  A
C496       Br497   1.926       .  S
C501        C502   1.400       .  A
C501        C506   1.404       .  A
C501        H508   1.084       .  S
C502        C503   1.408       .  A
C503        C504   1.395       .  A
C503       Br510   1.926       .  S
C504        C505   1.414       .  A
C504        H509   1.074       .  S
C505        C506   1.445       .  A
C506       Br507   1.935       .  S
