geometry optimzed in LAMMPS
_audit_creation_date              2020-12-01 
_audit_creation_method            'lammps2cif' 
_symmetry_space_group_name_H-M    'P1' 
_symmetry_Int_Tables_number       1 
_symmetry_cell_setting            triclinic 
loop_ 
_symmetry_equiv_pos_as_xyz 
  x,y,z 
_cell_length_a                    36.10553058 
_cell_length_b                    39.97375465983477 
_cell_length_c                    21.350926415427367 
_cell_angle_alpha                 85.04759111725097 
_cell_angle_beta                  96.0280913615429 
_cell_angle_gamma                 117.19388509101489 
loop_ 
_atom_site_label 
_atom_site_type_symbol 
_atom_site_fract_x 
_atom_site_fract_y 
_atom_site_fract_z 
_atom_site_charge 
N1          N  0.08945454  0.15484969  0.68735853    -0.00600
C2          C  0.10024221  0.19209949  0.67668040     0.02000
C3          C  0.10404526  0.20861110  0.73271473    -0.20900
C4          C  0.09575141  0.18077871  0.77940080    -0.21100
C5          C  0.08668586  0.14770122  0.75077930     0.01900
H6          H  0.11050526  0.23735389  0.73917110     0.15700
H7          H  0.09705079  0.18479028  0.82917880     0.15700
N8          N  0.11787572  0.39613198  0.78133957    -0.00600
C9          C  0.14751629  0.38411659  0.78256337     0.02000
C10         C  0.17028247  0.39103934  0.84054708    -0.20900
C11         C  0.15346267  0.40713108  0.87613455    -0.21100
C12         C  0.12097297  0.40961196  0.83882912     0.01900
H13         H  0.19477486  0.38322828  0.85693052     0.15700
H14         H  0.16226232  0.41379117  0.92520685     0.15700
C15         C  0.18966746  0.33193066  0.68999956     0.83100
N16         N  0.22754560  0.33294180  0.68582718    -0.75200
C17         C  0.23024563  0.30454885  0.65925016     0.85500
N18         N  0.19477272  0.27550593  0.63574509    -0.75100
C19         C  0.15695745  0.27464600  0.63787633     0.85600
N20         N  0.15458313  0.30344402  0.66374976    -0.76900
N21         N  0.36674145  0.37823112  0.73230873    -0.00600
C22         C  0.32578018  0.35389336  0.72108627     0.02000
C23         C  0.30477074  0.35115494  0.77356844    -0.20900
C24         C  0.33408923  0.37479283  0.81752767    -0.21100
C25         C  0.37215183  0.39063581  0.79108190     0.01900
H26         H  0.27293767  0.33158735  0.78233878     0.15700
H27         H  0.32892910  0.37678334  0.86579493     0.15700
O28         O  0.07017077  0.08466724  0.94965071    -0.78000
O29         O  0.05653211  0.44004835  0.14842179    -0.62700
O30         O  0.08867231  0.02594073  0.99626429    -1.09300
C31         C  0.46324688  0.44703377  0.91018710     1.08900
O32         O  0.01040098  0.39010781  0.09587180    -0.75900
O33         O  0.04593268  0.41769964  0.98312624    -0.63500
Ni34       Ni  0.10431311  0.07618120  0.01878285     1.34900
C35         C  0.06474575  0.44299302  0.94151511     0.87600
O36         O  0.12272711  0.01169190  0.11142057    -0.76400
O37         O  0.14079070  0.07299740  0.08976903    -0.86700
C38         C  0.03369630  0.40511082  0.14484431     0.87200
O39         O  0.06031596  0.06475777  0.07176899    -0.64900
O40         O  0.47671115  0.42328646  0.92893856    -0.84200
C41         C  0.04046111  0.03621913  0.10728917     0.88000
C42         C  0.14547010  0.04634802  0.12128817     1.09600
H43         H  0.50149026  0.46918805  0.06036617     0.41400
O44         O  0.01782579  0.45911517  0.03991999    -1.06900
O45         O  0.05644758  0.47062605  0.92558123    -0.63500
Ni46       Ni  0.03523760  0.49704525  0.97327366     1.26300
O47         O  0.04461654  0.00630932  0.10880991    -0.63800
O48         O  0.48260807  0.48079619  0.92666269    -0.76000
C49         C  0.06556293  0.07597288  0.89247707     0.87400
O50         O  0.05978825  0.04353252  0.87847036    -0.63200
Ni51       Ni  0.99453963  0.40783665  0.01501921     1.27400
Ni52       Ni  0.07189050  0.47921918  0.08576175     1.26100
H53         H  0.11237623  0.02664961  0.97787042     0.42700
O54         O  0.02794813  0.37987154  0.50761752    -0.78000
O55         O  0.03568664  0.03272382  0.60404811    -0.62700
O56         O  0.01345398  0.44243810  0.52321154    -1.09300
C57         C  0.12156121  0.02918585  0.39072692     1.08900
O58         O  0.07318395  0.08154501  0.54062652    -0.75900
O59         O  0.03489763  0.04966770  0.42756549    -0.63500
Ni60       Ni  0.99436599  0.39171745  0.55760414     1.34900
C61         C  0.01656756  0.02323710  0.38941653     0.87600
O62         O  0.48158974  0.46696976  0.61883062    -0.76400
O63         O  0.46517798  0.40580177  0.61463450    -0.86700
C64         C  0.05563001  0.06773151  0.59189321     0.87200
O65         O  0.03629354  0.40133855  0.62509415    -0.64900
O66         O  0.10925205  0.05370186  0.39791895    -0.84200
C67         C  0.05706554  0.42996226  0.65782279     0.88000
C68         C  0.45963764  0.43238449  0.63398103     1.09600
H69         H  0.09261828  0.01364158  0.53637280     0.41400
O70         O  0.06969563  0.01362260  0.50851384    -1.06900
O71         O  0.02528342  0.99557759  0.38859298    -0.63500
Ni72       Ni  0.06391945  0.46370945  0.48175771     1.26300
O73         O  0.05553647  0.46104187  0.64600246    -0.63800
O74         O  0.10340705  0.99594168  0.41379386    -0.76000
C75         C  0.03749469  0.38968764  0.45111478     0.87400
O76         O  0.04479774  0.42223253  0.42806968    -0.63200
Ni77       Ni  0.08812796  0.06344397  0.47080340     1.27400
Ni78       Ni  0.03053199  0.48196954  0.57985551     1.26100
H79         H  0.49022039  0.44882238  0.49354239     0.41900
N80         N  0.23313849  0.09591462  0.24454243    -0.00600
C81         C  0.27525102  0.11168293  0.25098915     0.02000
C82         C  0.28880336  0.11099950  0.31404477    -0.20900
C83         C  0.25361846  0.09424388  0.34726096    -0.21100
C84         C  0.21991963  0.08548662  0.30337685     0.01900
H85         H  0.32073880  0.12089247  0.33364858     0.15700
H86         H  0.25274745  0.08971670  0.39790692     0.15700
N87         N  0.97108994  0.06659366  0.18510509    -0.00600
C88         C  0.45125116  0.09111242  0.17480660     0.02000
C89         C  0.43009760  0.09101592  0.22546044    -0.20900
C90         C  0.93652837  0.06400286  0.26813559    -0.21100
C91         C  0.96751995  0.05723164  0.24752549     0.01900
H92         H  0.40359037  0.09683407  0.22436521     0.15700
H93         H  0.92704393  0.06015745  0.31571377     0.15700
C94         C  0.41604558  0.14418495  0.11902448     0.83100
N95         N  0.45087304  0.17633519  0.13436087    -0.75200
C96         C  0.44752306  0.20399196  0.16221184     0.85500
N97         N  0.40962498  0.19822280  0.17813044    -0.75100
C98         C  0.37518503  0.16528759  0.16702125     0.85600
N99         N  0.37815491  0.13866799  0.13522744    -0.76900
N100        N  0.02101684  0.32264827  0.25798495    -0.00600
C101        C  0.01736747  0.28803216  0.24977718     0.02000
C102        C  0.03641032  0.27695498  0.30127620    -0.20900
C103        C  0.05085800  0.30521147  0.34338387    -0.21100
C104        C  0.04004756  0.33270691  0.31643611     0.01900
H105        H  0.03667007  0.24999324  0.31000129     0.15700
H106        H  0.06535285  0.30437087  0.39007817     0.15700
C107        C  0.48507114  0.23613532  0.18802748    -0.13600
C108        C  0.48332458  0.26742321  0.20239653    -0.28700
H109        H  0.51286104  0.23245413  0.20175732     0.15500
H110        H  0.45622694  0.27161205  0.18553462     0.16000
C111        C  0.41934019  0.11588617  0.08361388    -0.13600
C112        C  0.43830265  0.09487135  0.10720968    -0.28700
H113        H  0.40816006  0.11378965  0.03418804     0.15500
H114        H  0.44294432  0.07793686  0.07464369     0.16000
C115        C  0.33988733  0.15547854  0.20554057    -0.13600
C116        C  0.30326472  0.12452620  0.19900273    -0.28700
H117        H  0.34571194  0.17314509  0.24503019     0.15500
H118        H  0.29526664  0.10734894  0.15830008     0.16000
C119        C  0.04171246  0.36223182  0.41434930    -0.13600
C120        C  0.04088381  0.36391357  0.35113060    -0.28700
H121        H  0.04249682  0.33814792  0.44094115     0.15500
H122        H  0.03637717  0.38648528  0.32529297     0.16000
C123        C  0.15947915  0.03976963  0.35766282    -0.13600
C124        C  0.17640609  0.07088971  0.32020070    -0.28700
H125        H  0.17603579  0.02284969  0.36865195     0.15500
H126        H  0.15958012  0.08719021  0.30541564     0.16000
C127        C  0.98491005  0.02600940  0.34320677    -0.13600
C128        C  0.99632246  0.04664140  0.28926350    -0.28700
H129        H  0.95313976  0.01484738  0.35679235     0.15500
H130        H  0.02827773  0.05735083  0.27665309     0.16000
C131        C  0.01061180  0.34526517  0.20978428    -0.13600
C132        C  0.03721958  0.38165797  0.19993188    -0.28700
H133        H  0.98414287  0.33174887  0.17594510     0.15500
H134        H  0.06501937  0.39458792  0.23172321     0.16000
C135        C  0.01105791  0.03740012  0.14922018    -0.13600
C136        C  0.00073398  0.06586988  0.14558670    -0.28700
H137        H  0.99659934  0.01380360  0.18249752     0.15500
H138        H  0.01292627  0.08804392  0.10916164     0.16000
C139        C  0.17706908  0.05505031  0.17480420    -0.13600
C140        C  0.20725258  0.08970085  0.18661346    -0.28700
H141        H  0.17451140  0.03195759  0.20786012     0.15500
H142        H  0.21270292  0.11306964  0.15273823     0.16000
C143        C  0.42632235  0.42275043  0.67680406    -0.13600
C144        C  0.39945176  0.38690910  0.69127064    -0.28700
H145        H  0.42334053  0.44548720  0.69656829     0.15500
H146        H  0.40125802  0.36403701  0.67004808     0.16000
C147        C  0.41334267  0.40762258  0.82752921    -0.13600
C148        C  0.42430539  0.43487054  0.86842191    -0.28700
H149        H  0.43533970  0.39695284  0.82049912     0.15500
H150        H  0.40396507  0.44779815  0.87228820     0.16000
C151        C  0.27044161  0.30749561  0.64278706    -0.13600
C152        C  0.30988473  0.32954743  0.66555353    -0.28700
H153        H  0.26759253  0.28993652  0.60459830     0.15500
H154        H  0.33362107  0.32785992  0.64070578     0.16000
C155        C  0.09035594  0.39679755  0.72769334    -0.13600
C156        C  0.08423854  0.42743849  0.71278708    -0.28700
H157        H  0.07651944  0.37314528  0.69703459     0.15500
H158        H  0.10037139  0.45187270  0.74159660     0.16000
C159        C  0.08932102  0.41855397  0.86216474    -0.13600
C160        C  0.09793981  0.44017959  0.91154138    -0.28700
H161        H  0.05777238  0.40581615  0.83988486     0.15500
H162        H  0.12939456  0.45366047  0.93383496     0.16000
C163        C  0.15169393  0.36249979  0.73273287    -0.13600
C164        C  0.18690093  0.35912456  0.72966377    -0.28700
H165        H  0.12474354  0.34741424  0.70053718     0.15500
H166        H  0.21452649  0.37572233  0.75964722     0.16000
C167        C  0.08535712  0.12997312  0.63897101    -0.13600
C168        C  0.05842954  0.09315109  0.64055598    -0.28700
H169        H  0.10405930  0.14208575  0.59869826     0.15500
H170        H  0.03830273  0.08099460  0.67912508     0.16000
C171        C  0.07916133  0.11150426  0.78686534    -0.13600
C172        C  0.06442798  0.10467875  0.84455882    -0.28700
H173        H  0.08868361  0.09229415  0.76875837     0.15500
H174        H  0.05527618  0.12443186  0.86161916     0.16000
C175        C  0.12112775  0.24773950  0.59897091    -0.13600
C176        C  0.09974605  0.21055748  0.61329284    -0.28700
H177        H  0.11497553  0.25805287  0.55228412     0.15500
H178        H  0.07822310  0.19294223  0.57664078     0.16000
N179        N  0.07596121  0.63923297  0.71396353    -0.00600
C180        C  0.07801043  0.67394210  0.70089240     0.02000
C181        C  0.05681967  0.68115606  0.74424391    -0.20900
C182        C  0.04324641  0.65103745  0.78665249    -0.21100
C183        C  0.05666317  0.62612770  0.76875309     0.01900
H184        H  0.05475578  0.70697286  0.74883874     0.15700
H185        H  0.02789710  0.64907053  0.82866697     0.15700
N186        N  0.12150465  0.91545859  0.73904283    -0.00600
C187        C  0.14756012  0.90038119  0.73260125     0.02000
C188        C  0.17751092  0.90965135  0.78281389    -0.20900
C189        C  0.16875744  0.93035829  0.82202577    -0.21100
C190        C  0.13376887  0.93326822  0.79437230     0.01900
H191        H  0.20159527  0.90048925  0.79194007     0.15700
H192        H  0.18522535  0.94063447  0.86701375     0.15700
C193        C  0.17445467  0.83982191  0.63577441     0.83100
N194        N  0.21209266  0.84099983  0.63095067    -0.75200
C195        C  0.21670619  0.80905447  0.63498081     0.85500
N196        N  0.18208001  0.77517956  0.63604769    -0.75100
C197        C  0.14338006  0.77337914  0.63417114     0.85600
N198        N  0.13990384  0.80584653  0.63599722    -0.76900
N199        N  0.36220389  0.88148333  0.72038446    -0.00600
C200        C  0.32173092  0.85533919  0.72033956     0.02000
C201        C  0.31019566  0.84519084  0.78157774    -0.20900
C202        C  0.34511961  0.86518851  0.82041729    -0.21100
C203        C  0.37661794  0.88714181  0.78175981     0.01900
H204        H  0.27958478  0.82583746  0.79648518     0.15700
H205        H  0.34772917  0.86281485  0.87139151     0.15700
O206        O  0.07842041  0.58213023  0.97817235    -0.78000
O207        O  0.05674371  0.94718332  0.12290133    -0.62700
O208        O  0.08775303  0.51779641  0.02113184    -1.09300
C209        C  0.47266916  0.95117939  0.87991950     1.08900
O210        O  0.01734645  0.89643766  0.06749221    -0.75900
O211        O  0.06100988  0.92884261  0.96237739    -0.63500
Ni212      Ni  0.11043861  0.56891123  0.04515072     1.34900
C213        C  0.07872477  0.95321424  0.91897873     0.87600
O214        O  0.12559050  0.50009892  0.12952978    -0.76400
O215        O  0.14626954  0.56204845  0.11392828    -0.86700
C216        C  0.03666005  0.91189814  0.11849290     0.87200
O217        O  0.06909796  0.56100101  0.10126912    -0.64900
O218        O  0.48379205  0.92680536  0.90507510    -0.84200
C219        C  0.05081479  0.53382973  0.14026547     0.88000
C220        C  0.15012792  0.53407088  0.14160150     1.09600
H221        H  0.49671526  0.97016280  0.03375045     0.41400
O222        O  0.02143239  0.96371069  0.00708190    -1.06900
O223        O  0.06826070  0.97927506  0.89971346    -0.63500
Ni224      Ni  0.04004230  0.00236433  0.94093526     1.26300
O225        O  0.05253823  0.50279800  0.14072288    -0.63800
O226        O  0.48994809  0.98482155  0.89718219    -0.76000
C227        C  0.06538431  0.57063292  0.92255136     0.87400
O228        O  0.05387892  0.53675220  0.90948578    -0.63200
Ni229      Ni  0.00554282  0.91345914  0.98353448     1.27400
Ni230      Ni  0.07222503  0.98701585  0.06047995     1.26100
H231        H  0.10863977  0.51619438  0.99842206     0.42700
O232        O  0.01796494  0.88982861  0.47931303    -0.78000
O233        O  0.04787920  0.52269416  0.63329575    -0.62700
O234        O  0.00207432  0.95146888  0.49558626    -1.09300
C235        C  0.13831542  0.51845900  0.42647318     1.08900
O236        O  0.08113427  0.57155880  0.56719397    -0.75900
O237        O  0.05660425  0.54499899  0.44666116    -0.63500
Ni238      Ni  0.98572379  0.90152101  0.53178734     1.34900
C239        C  0.03697090  0.51785939  0.40991620     0.87600
O240        O  0.47367897  0.97461795  0.60494282    -0.76400
O241        O  0.45198501  0.91325923  0.59039826    -0.86700
C242        C  0.06395964  0.55756758  0.61876881     0.87200
O243        O  0.03061705  0.91401417  0.59487766    -0.64900
O244        O  0.13258547  0.54599834  0.44062193    -0.84200
C245        C  0.05126033  0.94332980  0.62603352     0.88000
C246        C  0.44896661  0.93988463  0.61459251     1.09600
H247        H  0.10381574  0.50209767  0.56791454     0.41400
O248        O  0.08197891  0.50341752  0.53910662    -1.06900
O249        O  0.03984500  0.48697171  0.41669646    -0.63500
Ni250      Ni  0.05189347  0.97359236  0.45227275     1.26300
O251        O  0.04673138  0.97301954  0.61596420    -0.63800
O252        O  0.11566123  0.48469753  0.44411846    -0.76000
C253        C  0.02810401  0.89990552  0.42318653     0.87400
O254        O  0.03365769  0.93184951  0.39916168    -0.63200
Ni255      Ni  0.10382353  0.55451927  0.50477197     1.27400
Ni256      Ni  0.01883368  0.99162669  0.55134148     1.26100
H257        H  0.48417977  0.95982657  0.47651315     0.41900
N258        N  0.24137378  0.57805936  0.26320459    -0.00600
C259        C  0.28357532  0.59459097  0.26676715     0.02000
C260        C  0.29906505  0.59188127  0.32805057    -0.20900
C261        C  0.26515105  0.57339365  0.36347113    -0.21100
C262        C  0.23007874  0.56557618  0.32267124     0.01900
H263        H  0.33153632  0.60227598  0.34514709     0.15700
H264        H  0.26611323  0.56793596  0.41400061     0.15700
N265        N  0.98797523  0.56849893  0.22348551    -0.00600
C266        C  0.45651676  0.58470167  0.18372268     0.02000
C267        C  0.43261109  0.58125438  0.23282321    -0.20900
C268        C  0.95320581  0.56899233  0.30389752    -0.21100
C269        C  0.98469488  0.56189855  0.28650907     0.01900
H270        H  0.40532994  0.58598552  0.23066759     0.15700
H271        H  0.94415919  0.56741492  0.35122433     0.15700
C272        C  0.42565198  0.64228396  0.13122623     0.83100
N273        N  0.45680181  0.67767661  0.13979219    -0.75200
C274        C  0.44951529  0.70342408  0.16684967     0.85500
N275        N  0.41140404  0.69295064  0.18796198    -0.75100
C276        C  0.38040276  0.65740538  0.18112500     0.85600
N277        N  0.38727861  0.63240661  0.15091720    -0.76900
N278        N  0.02143774  0.83022486  0.23703551    -0.00600
C279        C  0.01978498  0.79576098  0.23434660     0.02000
C280        C  0.03867893  0.78751287  0.28913998    -0.20900
C281        C  0.05043433  0.81692517  0.32779517    -0.21100
C282        C  0.03820399  0.84240331  0.29571886     0.01900
H283        H  0.03995962  0.76130988  0.30257657     0.15700
H284        H  0.06380493  0.81786289  0.37574321     0.15700
C285        C  0.48484515  0.73900723  0.18705993    -0.13600
C286        C  0.47975933  0.76939885  0.19684866    -0.28700
H287        H  0.51447492  0.73869409  0.20133503     0.15500
H288        H  0.45101583  0.77060355  0.17934358     0.16000
C289        C  0.43196359  0.61662411  0.09323832    -0.13600
C290        C  0.44727102  0.59260528  0.11609087    -0.28700
H291        H  0.42674678  0.61948275  0.04247059     0.15500
H292        H  0.45409777  0.57799807  0.08184918     0.16000
C293        C  0.34515758  0.64407747  0.22115072    -0.13600
C294        C  0.31030795  0.61149737  0.21359905    -0.28700
H295        H  0.34971327  0.66022745  0.26222169     0.15500
H296        H  0.30351953  0.59575565  0.17137592     0.16000
C297        C  0.03564641  0.87343662  0.38901996    -0.13600
C298        C  0.03487077  0.87316028  0.32604186    -0.28700
H299        H  0.03919200  0.85138784  0.41829388     0.15500
H300        H  0.02742005  0.89334302  0.29744998     0.16000
C301        C  0.17464235  0.52609630  0.39166283    -0.13600
C302        C  0.18777975  0.55219428  0.34434118    -0.28700
H303        H  0.19245181  0.51079793  0.40769113     0.15500
H304        H  0.16872462  0.56564438  0.32446313     0.16000
C305        C  0.00926380  0.52228586  0.35686596    -0.13600
C306        C  0.01532866  0.55649258  0.33253327    -0.28700
H307        H  0.98350526  0.49719389  0.33747288     0.15500
H308        H  0.04160169  0.58164287  0.35068895     0.16000
C309        C  0.01318772  0.85152355  0.18383584    -0.13600
C310        C  0.03829023  0.88866764  0.17545114    -0.28700
H311        H  0.98979532  0.83668301  0.14662570     0.15500
H312        H  0.06338842  0.90284804  0.21094732     0.16000
C313        C  0.02568516  0.53766943  0.18704143    -0.13600
C314        C  0.01849327  0.56778097  0.18606296    -0.28700
H315        H  0.01042738  0.51421324  0.22020515     0.15500
H316        H  0.03149783  0.59010180  0.15009077     0.16000
C317        C  0.18276618  0.54031850  0.19326187    -0.13600
C318        C  0.21392913  0.57421416  0.20736861    -0.28700
H319        H  0.18014586  0.51598430  0.22307216     0.15500
H320        H  0.21923492  0.59875686  0.17638564     0.16000
C321        C  0.41683024  0.92963718  0.65974246    -0.13600
C322        C  0.38659674  0.89416006  0.66637716    -0.28700
H323        H  0.42019067  0.95059114  0.69198372     0.15500
H324        H  0.38130257  0.87370891  0.63181633     0.16000
C325        C  0.42076461  0.90548400  0.80615867    -0.13600
C326        C  0.43743901  0.93952035  0.83100267    -0.28700
H327        H  0.43610916  0.88753292  0.81612592     0.15500
H328        H  0.42156863  0.95708371  0.82139626     0.16000
C329        C  0.25680898  0.81155036  0.66375513    -0.13600
C330        C  0.29171302  0.84461898  0.66423851    -0.28700
H331        H  0.25546712  0.78868151  0.69644280     0.15500
H332        H  0.29415662  0.86698354  0.62963324     0.16000
C333        C  0.08792332  0.91308567  0.69410977    -0.13600
C334        C  0.08281449  0.94377670  0.67578499    -0.28700
H335        H  0.06905190  0.88683731  0.67075271     0.15500
H336        H  0.10366027  0.97056236  0.69629578     0.16000
C337        C  0.10908399  0.94765187  0.82537068    -0.13600
C338        C  0.11088823  0.94903910  0.88827409    -0.28700
H339        H  0.08488608  0.95241808  0.79765158     0.15500
H340        H  0.13137847  0.94022819  0.91810563     0.16000
C341        C  0.14169226  0.87326381  0.68461582    -0.13600
C342        C  0.17501294  0.87294018  0.66267744    -0.28700
H343        H  0.11050365  0.85111759  0.67331145     0.15500
H344        H  0.20560255  0.89628008  0.67323328     0.16000
C345        C  0.08546157  0.61827198  0.67150581    -0.13600
C346        C  0.05952151  0.58153375  0.66350341    -0.28700
H347        H  0.11126220  0.63297784  0.64165831     0.15500
H348        H  0.03268224  0.56770182  0.69150977     0.16000
C349        C  0.05846682  0.59518106  0.81173143    -0.13600
C350        C  0.06148195  0.59803558  0.87474428    -0.28700
H351        H  0.06067371  0.57184837  0.79302690     0.15500
H352        H  0.06344673  0.62323259  0.89350646     0.16000
C353        C  0.10656292  0.73722260  0.64787463    -0.13600
C354        C  0.10818692  0.70415148  0.66002945    -0.28700
H355        H  0.07847440  0.73908711  0.65649751     0.15500
H356        H  0.13550879  0.70159806  0.64937604     0.16000
N357        N  0.59460492  0.16099796  0.70122669    -0.00600
C358        C  0.60480530  0.19827614  0.69341829     0.02000
C359        C  0.61459024  0.21455902  0.75129123    -0.20900
C360        C  0.61030035  0.18657825  0.79605180    -0.21100
C361        C  0.59747665  0.15370897  0.76460735     0.01900
H362        H  0.62149024  0.24304165  0.76076351     0.15700
H363        H  0.61532611  0.18986742  0.84648789     0.15700
N364        N  0.63253581  0.41955335  0.77643609    -0.00600
C365        C  0.66153543  0.40672102  0.77813013     0.02000
C366        C  0.68683369  0.41684420  0.83366026    -0.20900
C367        C  0.67189587  0.43533802  0.86756020    -0.21100
C368        C  0.63794884  0.43614649  0.83181861     0.01900
H369        H  0.71180100  0.40967131  0.85001958     0.15700
H370        H  0.68351057  0.44544856  0.91450244     0.15700
C371        C  0.69214645  0.34156582  0.69609258     0.83100
N372        N  0.72752150  0.33784031  0.69259807    -0.75200
C373        C  0.72528222  0.30579635  0.67147089     0.85500
N374        N  0.68743030  0.27773504  0.65315580    -0.75100
C375        C  0.65218135  0.28175444  0.65356978     0.85600
N376        N  0.65467244  0.31406702  0.67396475    -0.76900
N377        N  0.86293345  0.37413359  0.73399524    -0.00600
C378        C  0.82150845  0.35066383  0.72611323     0.02000
C379        C  0.80241664  0.35075629  0.77912877    -0.20900
C380        C  0.83338164  0.37518630  0.82012940    -0.21100
C381        C  0.87048335  0.38854501  0.79157941     0.01900
H382        H  0.77070073  0.33237946  0.79039922     0.15700
H383        H  0.82987763  0.37911542  0.86828516     0.15700
O384        O  0.57640776  0.08977654  0.95886975    -0.78000
O385        O  0.56059554  0.44647448  0.14441422    -0.62700
O386        O  0.58919362  0.02813988  0.00604324    -1.09300
C387        C  0.96160698  0.44238332  0.91127056     1.08900
O388        O  0.50985401  0.39699489  0.09596109    -0.75900
O389        O  0.54894090  0.42405023  0.98654189    -0.63500
Ni390      Ni  0.60860068  0.07907209  0.02814103     1.34900
C391        C  0.56739580  0.44765053  0.94267088     0.87600
O392        O  0.62044837  0.01178580  0.12274538    -0.76400
O393        O  0.64331167  0.07359717  0.09937300    -0.86700
C394        C  0.53506182  0.41187458  0.14325118     0.87200
O395        O  0.56566023  0.07107608  0.08100568    -0.64900
O396        O  0.97238278  0.41704530  0.93201330    -0.84200
C397        C  0.54407981  0.04324294  0.11654750     0.88000
C398        C  0.64539138  0.04613209  0.13206693     1.09600
H399        H  0.99768014  0.46177206  0.06282236     0.41400
O400        O  0.52088756  0.46574550  0.03692707    -1.06900
O401        O  0.55755852  0.47392749  0.92173740    -0.63500
Ni402      Ni  0.53763826  0.50232853  0.96836934     1.26300
O403        O  0.54480137  0.01175631  0.11757073    -0.63800
O404        O  0.98144606  0.47591582  0.92867845    -0.76000
C405        C  0.57081702  0.08057165  0.90191295     0.87400
O406        O  0.56282336  0.04755878  0.88801947    -0.63200
Ni407      Ni  0.49644172  0.41427912  0.01359463     1.27400
Ni408      Ni  0.57573962  0.48533271  0.08039455     1.26100
H409        H  0.61212007  0.02705620  0.98819123     0.42700
O410        O  0.53374765  0.39096611  0.50495293    -0.78000
O411        O  0.54195639  0.03906784  0.61691348    -0.62700
O412        O  0.51430772  0.45047336  0.52014621    -1.09300
C413        C  0.62932884  0.03778645  0.40392837     1.08900
O414        O  0.57417743  0.08817285  0.55072840    -0.75900
O415        O  0.54447366  0.06042761  0.43238996    -0.63500
Ni416      Ni  0.50050343  0.40121212  0.55792518     1.34900
C417        C  0.52533299  0.03352723  0.39527979     0.87600
O418        O  0.97886468  0.45920750  0.61932518    -0.76400
O419        O  0.95802234  0.39744503  0.61101726    -0.86700
C420        C  0.55927258  0.07412361  0.60377522     0.87200
O421        O  0.54560585  0.41476526  0.62110471    -0.64900
O422        O  0.62084049  0.06409447  0.41602493    -0.84200
C423        C  0.56575118  0.44461121  0.65103368     0.88000
C424        C  0.95431183  0.42474399  0.63143142     1.09600
H425        H  0.59748700  0.02067844  0.54647004     0.41400
O426        O  0.57473459  0.02122542  0.51885521    -1.06900
O427        O  0.53105409  0.00410498  0.39799264    -0.63500
Ni428      Ni  0.56252625  0.47321931  0.47337947     1.26300
O429        O  0.56075542  0.47392758  0.63873960    -0.63800
O430        O  0.60845629  0.00391831  0.42289173    -0.76000
C431        C  0.54015398  0.39956332  0.44715830     0.87400
O432        O  0.54360539  0.43072506  0.42214063    -0.63200
Ni433      Ni  0.59441546  0.07189904  0.48432481     1.27400
Ni434      Ni  0.53119993  0.49098078  0.57440628     1.26100
H435        H  0.99116121  0.44292785  0.49447428     0.41900
N436        N  0.73674607  0.09610031  0.25014064    -0.00600
C437        C  0.77891187  0.11364146  0.25348591     0.02000
C438        C  0.79460820  0.11832057  0.31588895    -0.20900
C439        C  0.76074179  0.10330667  0.35192433    -0.21100
C440        C  0.72561462  0.09010133  0.31031405     0.01900
H441        H  0.82713616  0.13103040  0.33333501     0.15700
H442        H  0.76164798  0.10328511  0.40275228     0.15700
N443        N  0.48095642  0.08009926  0.19492499    -0.00600
C444        C  0.94279930  0.07950986  0.16616781     0.02000
C445        C  0.92077525  0.07802615  0.21653739    -0.20900
C446        C  0.44770825  0.07960408  0.27818657    -0.21100
C447        C  0.47881798  0.07298560  0.25794395     0.01900
H448        H  0.89520497  0.08512701  0.21588192     0.15700
H449        H  0.43907110  0.07687604  0.32607740     0.15700
C450        C  0.91545238  0.13934926  0.11786173     0.83100
N451        N  0.95137048  0.17019226  0.13498686    -0.75200
C452        C  0.94966469  0.19875514  0.16259427     0.85500
N453        N  0.91216018  0.19526237  0.17596614    -0.75100
C454        C  0.87654714  0.16346974  0.16368847     0.85600
N455        N  0.87801534  0.13592647  0.13237495    -0.76900
N456        N  0.51837599  0.32847307  0.25677733    -0.00600
C457        C  0.51305796  0.29318102  0.24983819     0.02000
C458        C  0.53054011  0.28140919  0.30238732    -0.20900
C459        C  0.54588422  0.31002345  0.34381225    -0.21100
C460        C  0.53705455  0.33844115  0.31538427     0.01900
H461        H  0.52908013  0.25382686  0.31212786     0.15700
H462        H  0.55942963  0.30863102  0.39097377     0.15700
C463        C  0.98793009  0.22982146  0.18963913    -0.13600
C464        C  0.98784209  0.26218436  0.20208065    -0.28700
H465        H  0.01447743  0.22459624  0.20545665     0.15500
H466        H  0.96180604  0.26741650  0.18291913     0.16000
C467        C  0.91690860  0.11160821  0.07857997    -0.13600
C468        C  0.93246694  0.08748281  0.09915036    -0.28700
H469        H  0.90756383  0.11276112  0.02874053     0.15500
H470        H  0.93635615  0.07140376  0.06413430     0.16000
C471        C  0.84095045  0.15594464  0.20024158    -0.13600
C472        C  0.80524915  0.12382893  0.19959830    -0.28700
H473        H  0.84648528  0.17623370  0.23531290     0.15500
H474        H  0.79750965  0.10354069  0.16368227     0.16000
C475        C  0.54533848  0.37239144  0.41134066    -0.13600
C476        C  0.53886850  0.37056710  0.34847531    -0.28700
H477        H  0.55107303  0.35103900  0.43923894     0.15500
H478        H  0.53004590  0.39065493  0.32240171     0.16000
C479        C  0.66647970  0.04698026  0.36972605    -0.13600
C480        C  0.68297180  0.07705328  0.32993116    -0.28700
H481        H  0.68236728  0.02948882  0.38058524     0.15500
H482        H  0.66664385  0.09381818  0.31546295     0.16000
C483        C  0.49528343  0.03717491  0.34671676    -0.13600
C484        C  0.50837010  0.06394670  0.30034835    -0.28700
H485        H  0.46216219  0.01929289  0.35103372     0.15500
H486        H  0.54154135  0.08013436  0.29412118     0.16000
C487        C  0.50986663  0.35169085  0.20749548    -0.13600
C488        C  0.53700904  0.38819475  0.19906693    -0.28700
H489        H  0.48433467  0.33846218  0.17206943     0.15500
H490        H  0.56413306  0.40077919  0.23219552     0.16000
C491        C  0.51691961  0.04729408  0.15937729    -0.13600
C492        C  0.50932082  0.07734770  0.15536618    -0.28700
H493        H  0.50171739  0.02453667  0.19373277     0.15500
H494        H  0.52198687  0.09881995  0.11804206     0.16000
C495        C  0.67690744  0.05418902  0.18580090    -0.13600
C496        C  0.70944463  0.08824210  0.19355096    -0.28700
H497        H  0.67263923  0.03181288  0.22135181     0.15500
H498        H  0.71602512  0.11017656  0.15650680     0.16000
C499        C  0.92058265  0.41627507  0.67293862    -0.13600
C500        C  0.89391850  0.38093157  0.69072116    -0.28700
H501        H  0.91815871  0.43971263  0.69111891     0.15500
H502        H  0.89502533  0.35712116  0.67165296     0.16000
C503        C  0.91215455  0.40455659  0.82648413    -0.13600
C504        C  0.92424852  0.43225029  0.86674040    -0.28700
H505        H  0.93252951  0.39188399  0.82094928     0.15500
H506        H  0.90530690  0.44676391  0.86892310     0.16000
C507        C  0.76260138  0.30309794  0.65513867    -0.13600
C508        C  0.80306459  0.32371919  0.67452807    -0.28700
H509        H  0.75645354  0.28245514  0.62043965     0.15500
H510        H  0.82498088  0.31835795  0.65119191     0.16000
C511        C  0.60184290  0.41602422  0.72527492    -0.13600
C512        C  0.59660389  0.44612312  0.70291930    -0.28700
H513        H  0.58445711  0.38926930  0.70285647     0.15500
H514        H  0.61583474  0.47312146  0.72390244     0.16000
C515        C  0.60766381  0.44714998  0.85534443    -0.13600
C516        C  0.60131993  0.44345804  0.91693857    -0.28700
H517        H  0.58721077  0.45431668  0.82229547     0.15500
H518        H  0.61855457  0.43242581  0.94978350     0.16000
C519        C  0.66200628  0.38086672  0.73223725    -0.13600
C520        C  0.69441762  0.37292299  0.73116902    -0.28700
H521        H  0.63411405  0.36622068  0.70146915     0.15500
H522        H  0.72320927  0.38869296  0.75947959     0.16000
C523        C  0.58708201  0.13662137  0.65004965    -0.13600
C524        C  0.56245224  0.09923922  0.65345435    -0.28700
H525        H  0.60245618  0.14941548  0.60700786     0.15500
H526        H  0.54536130  0.08623010  0.69485141     0.16000
C527        C  0.58816939  0.11679791  0.79835569    -0.13600
C528        C  0.57088585  0.10935113  0.85395315    -0.28700
H529        H  0.59837688  0.09785665  0.78099816     0.15500
H530        H  0.56135807  0.12917526  0.86985696     0.16000
C531        C  0.61319686  0.25411559  0.62147697    -0.13600
C532        C  0.59631041  0.21657316  0.63382802    -0.28700
H533        H  0.59980404  0.26457221  0.58134109     0.15500
H534        H  0.57127537  0.19858312  0.60122190     0.16000
N535        N  0.57145252  0.64441105  0.70910323    -0.00600
C536        C  0.57473970  0.67964028  0.70000406     0.02000
C537        C  0.55455612  0.68615965  0.74578445    -0.20900
C538        C  0.54018324  0.65469135  0.78548322    -0.21100
C539        C  0.55216241  0.62977645  0.76341856     0.01900
H540        H  0.55387064  0.71221294  0.75379404     0.15700
H541        H  0.52591256  0.65184364  0.82902361     0.15700
N542        N  0.62150789  0.91911429  0.75168325    -0.00600
C543        C  0.64883278  0.90539233  0.74545159     0.02000
C544        C  0.67918025  0.91615359  0.79524141    -0.20900
C545        C  0.66938940  0.93642221  0.83388740    -0.21100
C546        C  0.63352944  0.93761968  0.80625382     0.01900
H547        H  0.70442831  0.90848096  0.80437834     0.15700
H548        H  0.68585177  0.94780060  0.87835980     0.15700
C549        C  0.67623114  0.84524627  0.64748710     0.83100
N550        N  0.71313250  0.84526057  0.64103167    -0.75200
C551        C  0.71559264  0.81257718  0.63791498     0.85500
N552        N  0.67985695  0.77961682  0.63584351    -0.75100
C553        C  0.64210904  0.77929813  0.63752282     0.85600
N554        N  0.64061515  0.81219833  0.64432584    -0.76900
N555        N  0.86280898  0.87484989  0.71999255    -0.00600
C556        C  0.82215184  0.84928979  0.71982039     0.02000
C557        C  0.81192431  0.83491334  0.78039766    -0.20900
C558        C  0.84788915  0.85171465  0.81890184    -0.21100
C559        C  0.87851239  0.87603204  0.78069360     0.01900
H560        H  0.78144543  0.81519471  0.79531256     0.15700
H561        H  0.85150317  0.84638457  0.86918366     0.15700
O562        O  0.58714922  0.58887238  0.96644842    -0.78000
O563        O  0.55123060  0.94990091  0.13236699    -0.62700
O564        O  0.59127640  0.52320223  0.01414039    -1.09300
C565        C  0.97465901  0.94430231  0.87199943     1.08900
O566        O  0.51097495  0.89982142  0.07576949    -0.75900
O567        O  0.55515774  0.93005416  0.97104739    -0.63500
Ni568      Ni  0.61471593  0.57440254  0.03794744     1.34900
C569        C  0.57446504  0.95427361  0.92847979     0.87600
O570        O  0.63025099  0.50588486  0.12208677    -0.76400
O571        O  0.64706068  0.56712765  0.11170342    -0.86700
C572        C  0.53014681  0.91479290  0.12722081     0.87200
O573        O  0.56974500  0.56607977  0.08650805    -0.64900
O574        O  0.98825254  0.92160565  0.89705679    -0.84200
C575        C  0.55306587  0.54036517  0.12845668     0.88000
C576        C  0.65271952  0.53966101  0.13745265     1.09600
H577        H  0.99826056  0.96399022  0.02553226     0.41400
O578        O  0.51925473  0.96845033  0.01581635    -1.06900
O579        O  0.56600419  0.98145758  0.90903609    -0.63500
Ni580      Ni  0.54039260  0.00684786  0.95008399     1.26300
O581        O  0.55823776  0.51080859  0.13495054    -0.63800
O582        O  0.98976324  0.97792052  0.88872588    -0.76000
C583        C  0.56953010  0.57563409  0.91323224     0.87400
O584        O  0.55497414  0.54094014  0.90231909    -0.63200
Ni585      Ni  0.50033175  0.91768487  0.99181319     1.27400
Ni586      Ni  0.56990258  0.98951970  0.07030676     1.26100
H587        H  0.61163023  0.52114330  0.99081837     0.42700
O588        O  0.52434904  0.89890076  0.48835491    -0.78000
O589        O  0.54846736  0.53225305  0.62564700    -0.62700
O590        O  0.50697440  0.95959911  0.50433758    -1.09300
C591        C  0.63715103  0.52983774  0.41778938     1.08900
O592        O  0.57258495  0.57920594  0.55310621    -0.75900
O593        O  0.55546857  0.55405506  0.43186605    -0.63500
Ni594      Ni  0.48920551  0.90888052  0.53764771     1.34900
C595        C  0.53272872  0.52497505  0.40051723     0.87600
O596        O  0.96844095  0.96807063  0.59431380    -0.76400
O597        O  0.95115288  0.90690231  0.58844412    -0.86700
C598        C  0.55939682  0.56607113  0.60748104     0.87200
O599        O  0.53085413  0.91860761  0.60572566    -0.64900
O600        O  0.63353919  0.55766186  0.43620389    -0.84200
C601        C  0.55331087  0.94796580  0.63599556     0.88000
C602        C  0.94638589  0.93348531  0.60929193     1.09600
H603        H  0.60370810  0.51336261  0.55602806     0.41400
O604        O  0.58061906  0.51364216  0.52905875    -1.06900
O605        O  0.53374000  0.49341087  0.41115410    -0.63500
Ni606      Ni  0.55693047  0.98168246  0.46143551     1.26300
O607        O  0.55163838  0.97886477  0.62438109    -0.63800
O608        O  0.61219421  0.49573974  0.43009700    -0.76000
C609        C  0.53287645  0.90826672  0.43146159     0.87400
O610        O  0.53827596  0.94017432  0.40749529    -0.63200
Ni611      Ni  0.60044137  0.56458488  0.49499783     1.27400
Ni612      Ni  0.52410235  0.99878571  0.56195631     1.26100
H613        H  0.97892013  0.95079508  0.46762223     0.41900
N614        N  0.74381853  0.58509787  0.25951238    -0.00600
C615        C  0.78609780  0.60093339  0.26500863     0.02000
C616        C  0.80031765  0.59974302  0.32756217    -0.20900
C617        C  0.76569939  0.58321291  0.36173013    -0.21100
C618        C  0.73145920  0.57496263  0.31899903     0.01900
H619        H  0.83243883  0.60978852  0.34635200     0.15700
H620        H  0.76565709  0.57925129  0.41251715     0.15700
N621        N  0.48673558  0.57442116  0.20469812    -0.00600
C622        C  0.95850502  0.57934282  0.20073939     0.02000
C623        C  0.93624229  0.57968363  0.24947047    -0.20900
C624        C  0.44933212  0.56891315  0.28563469    -0.21100
C625        C  0.48263656  0.56502282  0.26698905     0.01900
H626        H  0.91000892  0.58601745  0.24615971     0.15700
H627        H  0.43904817  0.56435371  0.33281626     0.15700
C628        C  0.92932824  0.63623885  0.13853016     0.83100
N629        N  0.96226471  0.67089776  0.14552599    -0.75200
C630        C  0.95706245  0.69894630  0.16870639     0.85500
N631        N  0.91929257  0.69139404  0.18822425    -0.75100
C632        C  0.88646319  0.65663068  0.18274815     0.85600
N633        N  0.89129717  0.62940460  0.15591636    -0.76900
N634        N  0.51190860  0.83270980  0.24543072    -0.00600
C635        C  0.50836569  0.79763331  0.24215147     0.02000
C636        C  0.52675395  0.78827042  0.29630244    -0.20900
C637        C  0.54082946  0.81796390  0.33498749    -0.21100
C638        C  0.53035167  0.84474230  0.30359562     0.01900
H639        H  0.52686398  0.76149744  0.30884037     0.15700
H640        H  0.55486130  0.81830175  0.38232640     0.15700
C641        C  0.99379618  0.73452673  0.18559713    -0.13600
C642        C  0.99049062  0.76632733  0.19123390    -0.28700
H643        H  0.02286311  0.73334761  0.20083015     0.15500
H644        H  0.96216721  0.76798138  0.17262797     0.16000
C645        C  0.93363944  0.60773555  0.10524227    -0.13600
C646        C  0.94831307  0.58405165  0.13223606    -0.28700
H647        H  0.92692107  0.60760121  0.05446552     0.15500
H648        H  0.95355398  0.56684136  0.10096918     0.16000
C649        C  0.85089732  0.64641913  0.22103079    -0.13600
C650        C  0.81415809  0.61547783  0.21294502    -0.28700
H651        H  0.85652544  0.66347787  0.26128466     0.15500
H652        H  0.80650267  0.59917860  0.17120352     0.16000
C653        C  0.53896404  0.88129099  0.39644394    -0.13600
C654        C  0.53103133  0.87740767  0.33390226    -0.28700
H655        H  0.54625955  0.86123883  0.42560964     0.15500
H656        H  0.52045776  0.89598770  0.30651761     0.16000
C657        C  0.67420860  0.53707322  0.38535513    -0.13600
C658        C  0.68888378  0.56302651  0.33830600    -0.28700
H659        H  0.69115955  0.52121662  0.40288553     0.15500
H660        H  0.67086453  0.57711605  0.31674717     0.16000
C661        C  0.50287716  0.52799260  0.35005904    -0.13600
C662        C  0.51359109  0.55884513  0.31128193    -0.28700
H663        H  0.47158843  0.50484676  0.34501878     0.15500
H664        H  0.54576760  0.58059288  0.31272005     0.16000
C665        C  0.50429573  0.85456937  0.19266024    -0.13600
C666        C  0.53083919  0.89123311  0.18390755    -0.28700
H667        H  0.48008231  0.84033720  0.15599638     0.15500
H668        H  0.55656175  0.90470898  0.21888769     0.16000
C669        C  0.52630324  0.54435730  0.17190620    -0.13600
C670        C  0.51646473  0.57313230  0.16615740    -0.28700
H671        H  0.51262789  0.52206807  0.20762392     0.15500
H672        H  0.52792177  0.59412937  0.12782091     0.16000
C673        C  0.68457150  0.54632995  0.19070295    -0.13600
C674        C  0.71711090  0.58004947  0.20232003    -0.28700
H675        H  0.68050861  0.52258112  0.22307961     0.15500
H676        H  0.72390993  0.60357557  0.16834542     0.16000
C677        C  0.91543967  0.92342571  0.65649300    -0.13600
C678        C  0.88629915  0.88768656  0.66508372    -0.28700
H679        H  0.91866283  0.94470462  0.68790885     0.15500
H680        H  0.88128085  0.86693656  0.63124604     0.16000
C681        C  0.92268030  0.89531329  0.80387193    -0.13600
C682        C  0.93934448  0.93062725  0.82347723    -0.28700
H683        H  0.93767802  0.87751287  0.81899132     0.15500
H684        H  0.92320247  0.94774042  0.81057013     0.16000
C685        C  0.75496282  0.81182673  0.66209315    -0.13600
C686        C  0.79100696  0.84372821  0.66604931    -0.28700
H687        H  0.75265856  0.78659086  0.68870327     0.15500
H688        H  0.79432111  0.86857774  0.63724313     0.16000
C689        C  0.58802241  0.91642560  0.70622309    -0.13600
C690        C  0.58397424  0.94742204  0.68643365    -0.28700
H691        H  0.56868123  0.88995024  0.68376581     0.15500
H692        H  0.60564415  0.97420978  0.70621468     0.16000
C693        C  0.60828936  0.95157546  0.83652640    -0.13600
C694        C  0.60637370  0.94892508  0.89925756    -0.28700
H695        H  0.58677988  0.95949574  0.80764741     0.15500
H696        H  0.62402837  0.93691688  0.92890165     0.16000
C697        C  0.64420638  0.87879795  0.69734944    -0.13600
C698        C  0.67786565  0.87766012  0.67826703    -0.28700
H699        H  0.61303575  0.85804051  0.68197982     0.15500
H700        H  0.70869828  0.89964529  0.69225218     0.16000
C701        C  0.58061425  0.62476274  0.66407746    -0.13600
C702        C  0.55326229  0.58916485  0.65138876    -0.28700
H703        H  0.60788731  0.63960124  0.63711789     0.15500
H704        H  0.52560950  0.57509253  0.67771030     0.16000
C705        C  0.55477788  0.59828347  0.80365955    -0.13600
C706        C  0.56479334  0.60291486  0.86596322    -0.28700
H707        H  0.55155727  0.57317719  0.78292825     0.15500
H708        H  0.57150483  0.62973202  0.88457511     0.16000
C709        C  0.60463960  0.74373029  0.65070486    -0.13600
C710        C  0.60512085  0.71015237  0.66013096    -0.28700
H711        H  0.57738182  0.74629838  0.66167560     0.15500
H712        H  0.63168348  0.70701028  0.64749205     0.16000
loop_ 
_geom_bond_atom_site_label_1 
_geom_bond_atom_site_label_2 
_geom_bond_distance 
_geom_bond_site_symmetry_2 
_ccdc_geom_bond_type 
N1            C5   1.364       .  A
N1            C2   1.360       .  A
N1          C167   1.445       .  S
C2            C3   1.380       .  A
C2          C176   1.487       .  S
C3            C4   1.374       .  A
C3            H6   1.081       .  S
C4            C5   1.390       .  A
C4            H7   1.081       .  S
C5          C171   1.501       .  S
N8           C12   1.356       .  A
N8            C9   1.356       .  A
N8          C155   1.442       .  S
C9           C10   1.387       .  A
C9          C163   1.488       .  S
C10          C11   1.378       .  A
C10          H13   1.082       .  S
C11          C12   1.384       .  A
C11          H14   1.082       .  S
C12         C159   1.485       .  S
C15          N16   1.362       .  A
C15          N20   1.363       .  A
C15         C164   1.478       .  S
N16          C17   1.358       .  A
C17          N18   1.359       .  A
C17         C151   1.479       .  S
N18          C19   1.355       .  A
C19          N20   1.359       .  A
C19         C175   1.476       .  S
N21          C25   1.351       .  A
N21          C22   1.357       .  A
N21         C144   1.440       .  S
C22          C23   1.387       .  A
C22         C152   1.493       .  S
C23          C24   1.387       .  A
C23          H26   1.080       .  S
C24          C25   1.384       .  A
C24          H27   1.082       .  S
C25         C147   1.484       .  S
O28         Ni34   1.931   1_556  S
O28          C49   1.271       .  A
O29         Ni52   1.884       .  S
O29          C38   1.260       .  A
O30         Ni34   1.912   1_556  S
O30        Ni230   1.900   1_546  S
O30        Ni224   1.900       .  S
O30          H53   0.966       .  S
C31         C148   1.482       .  S
C31          O48   1.266       .  A
C31          O40   1.270       .  A
O32         Ni51   1.940   1_455  S
O32          C38   1.274       .  A
O33         Ni51   1.901   1_456  S
O33          C35   1.272       .  A
Ni34         O37   1.936       .  S
Ni34         O39   1.907       .  S
C35         C160   1.468       .  S
C35          O45   1.281       .  A
O36        Ni230   1.899   1_545  S
O36          C42   1.270       .  A
O37          C42   1.278       .  A
C38         C132   1.472       .  S
O39          C41   1.268       .  A
O40        Ni407   1.938   1_556  S
C41         C135   1.478       .  S
C41          O47   1.269       .  A
C42         C139   1.470       .  S
H43         O400   0.966       .  S
O44         Ni52   1.927       .  S
O44         Ni46   1.914   1_554  S
O44         Ni51   1.926   1_455  S
O44         H399   0.966   1_455  S
O45         Ni46   1.956       .  S
Ni46        O228   1.916       .  S
Ni46        O404   1.909   1_455  S
Ni46        O208   1.905   1_556  S
O47        Ni230   1.926   1_545  S
O48        Ni402   1.918       .  S
C49         C172   1.482       .  S
C49          O50   1.273       .  A
O50        Ni224   1.935       .  S
Ni51        O396   1.943   1_554  S
Ni52        O214   1.898       .  S
Ni52        O225   1.928       .  S
Ni52        O208   1.898       .  S
O54         Ni60   1.928   1_455  S
O54          C75   1.269       .  A
O55        Ni256   1.897   1_545  S
O55          C64   1.265       .  A
O56         Ni60   1.923   1_455  S
O56         Ni78   1.903       .  S
O56         Ni72   1.902       .  S
O56         H435   0.966   1_455  S
C57         C123   1.474       .  S
C57          O74   1.264   1_545  A
C57          O66   1.273       .  A
O58         Ni77   1.936       .  S
O58          C64   1.275       .  A
O59         Ni77   1.897       .  S
O59          C61   1.270       .  A
Ni60         O65   1.903   1_655  S
Ni60        O419   1.926       .  S
C61         C127   1.467   1_455  S
C61          O71   1.282   1_545  A
O62        Ni434   1.912       .  S
O62          C68   1.273       .  A
O63        Ni416   1.924       .  S
O63          C68   1.276       .  A
C64         C168   1.479       .  S
O65          C67   1.266       .  A
O66         Ni77   1.944       .  S
C67         C156   1.476       .  S
C67          O73   1.271       .  A
C68         C143   1.476       .  S
H69          O70   0.967       .  S
O70         Ni77   1.919       .  S
O70        Ni256   1.929   1_545  S
O70        Ni250   1.909   1_545  S
O71        Ni250   1.958       .  S
Ni72         O76   1.912       .  S
Ni72        O249   1.952       .  S
Ni72        O252   1.899       .  S
Ni72        O248   1.915       .  S
O73         Ni78   1.931       .  S
O74        Ni250   1.899       .  S
C75         C119   1.473       .  S
C75          O76   1.268       .  A
Ni78        O233   1.893       .  S
Ni78        O418   1.914   1_455  S
Ni78        O248   1.923       .  S
H79         O412   0.966       .  S
N80          C84   1.354       .  A
N80          C81   1.350       .  A
N80         C140   1.436       .  S
C81          C82   1.386       .  A
C81         C116   1.477       .  S
C82          C83   1.377       .  A
C82          H85   1.082       .  S
C83          C84   1.382       .  A
C83          H86   1.082       .  S
C84         C124   1.477       .  S
N87          C91   1.356       .  A
N87         C444   1.354       .  A
N87         C136   1.442   1_655  S
C88         N443   1.353       .  A
C88          C89   1.387       .  A
C88         C112   1.486       .  S
C89         C446   1.381       .  A
C89          H92   1.081       .  S
C90          C91   1.386       .  A
C90         C445   1.380       .  A
C90          H93   1.082       .  S
C91         C128   1.482       .  S
C94          N95   1.360       .  A
C94          N99   1.360       .  A
C94         C111   1.468       .  S
N95          C96   1.357       .  A
C96          N97   1.355       .  A
C96         C107   1.472       .  S
N97          C98   1.353       .  A
C98          N99   1.360       .  A
C98         C115   1.470       .  S
N100        C104   1.358       .  A
N100        C101   1.354       .  A
N100        C131   1.444       .  S
C101        C102   1.383       .  A
C101        C464   1.479   1_455  S
C102        C103   1.376       .  A
C102        H105   1.082       .  S
C103        C104   1.388       .  A
C103        H106   1.082       .  S
C104        C120   1.492       .  S
C107        C108   1.343       .  D
C107        H109   1.086       .  S
C108        C457   1.476       .  S
C108        H110   1.086       .  S
C111        C112   1.345       .  D
C111        H113   1.086       .  S
C112        H114   1.086       .  S
C115        C116   1.340       .  D
C115        H117   1.088       .  S
C116        H118   1.086       .  S
C119        C120   1.344       .  D
C119        H121   1.085       .  S
C120        H122   1.084       .  S
C123        C124   1.340       .  D
C123        H125   1.087       .  S
C124        H126   1.086       .  S
C127        C128   1.342       .  D
C127        H129   1.086       .  S
C128        H130   1.087   1_655  S
C131        C132   1.340       .  D
C131        H133   1.085   1_455  S
C132        H134   1.086       .  S
C135        C136   1.344       .  D
C135        H137   1.086   1_455  S
C136        H138   1.087       .  S
C139        C140   1.339       .  D
C139        H141   1.087       .  S
C140        H142   1.086       .  S
C143        C144   1.344       .  D
C143        H145   1.087       .  S
C144        H146   1.085       .  S
C147        C148   1.343       .  D
C147        H149   1.087       .  S
C148        H150   1.086       .  S
C151        C152   1.350       .  D
C151        H153   1.088       .  S
C152        H154   1.084       .  S
C155        C156   1.347       .  D
C155        H157   1.086       .  S
C156        H158   1.086       .  S
C159        C160   1.341       .  D
C159        H161   1.087       .  S
C160        H162   1.085       .  S
C163        C164   1.347       .  D
C163        H165   1.085       .  S
C164        H166   1.086       .  S
C167        C168   1.343       .  D
C167        H169   1.087       .  S
C168        H170   1.085       .  S
C171        C172   1.350       .  D
C171        H173   1.085       .  S
C172        H174   1.086       .  S
C175        C176   1.349       .  D
C175        H177   1.086       .  S
C176        H178   1.086       .  S
N179        C183   1.364       .  A
N179        C180   1.361       .  A
N179        C345   1.449       .  S
C180        C181   1.386       .  A
C180        C354   1.491       .  S
C181        C182   1.369       .  A
C181        H184   1.081       .  S
C182        C183   1.385       .  A
C182        H185   1.082       .  S
C183        C349   1.497       .  S
N186        C190   1.359       .  A
N186        C187   1.352       .  A
N186        C333   1.437       .  S
C187        C188   1.384       .  A
C187        C341   1.485       .  S
C188        C189   1.379       .  A
C188        H191   1.082       .  S
C189        C190   1.387       .  A
C189        H192   1.082       .  S
C190        C337   1.490       .  S
C193        N194   1.353       .  A
C193        N198   1.361       .  A
C193        C342   1.479       .  S
N194        C195   1.356       .  A
C195        N196   1.360       .  A
C195        C329   1.475       .  S
N196        C197   1.362       .  A
C197        N198   1.364       .  A
C197        C353   1.481       .  S
N199        C203   1.356       .  A
N199        C200   1.353       .  A
N199        C322   1.438       .  S
C200        C201   1.384       .  A
C200        C330   1.478       .  S
C201        C202   1.375       .  A
C201        H204   1.082       .  S
C202        C203   1.380       .  A
C202        H205   1.082       .  S
C203        C325   1.474       .  S
O206       Ni212   1.934   1_556  S
O206        C227   1.274       .  A
O207       Ni230   1.898       .  S
O207        C216   1.264       .  A
O208       Ni212   1.916       .  S
O208        H231   0.967   1_554  S
C209        C326   1.480       .  S
C209        O226   1.266       .  A
C209        O218   1.273       .  A
O210       Ni229   1.937   1_554  S
O210        C216   1.272       .  A
O211       Ni229   1.900       .  S
O211        C213   1.271       .  A
Ni212       O215   1.939       .  S
Ni212       O217   1.909       .  S
C213        C338   1.470       .  S
C213        O223   1.285       .  A
O214        C220   1.268       .  A
O215        C220   1.277       .  A
C216        C310   1.478       .  S
O217        C219   1.270       .  A
O218       Ni585   1.941       .  S
C219        C313   1.479       .  S
C219        O225   1.269       .  A
C220        C317   1.474       .  S
H221        O578   0.967       .  S
O222       Ni230   1.927       .  S
O222       Ni224   1.925   1_564  S
O222       Ni229   1.918   1_554  S
O222        H577   0.966   1_455  S
O223       Ni224   1.963   1_565  S
Ni224       O582   1.906   1_445  S
O226       Ni580   1.908   1_565  S
C227        C350   1.476       .  S
C227        O228   1.269       .  A
Ni229       O574   1.935   1_455  S
O232       Ni238   1.921   1_455  S
O232        C253   1.267       .  A
O233        C242   1.265       .  A
O234       Ni238   1.919   1_455  S
O234       Ni256   1.911       .  S
O234       Ni250   1.904       .  S
O234        H613   0.966   1_455  S
C235        C301   1.472       .  S
C235        O252   1.265       .  A
C235        O244   1.275       .  A
O236       Ni255   1.951       .  S
O236        C242   1.277       .  A
O237       Ni255   1.907       .  S
O237        C239   1.274       .  A
Ni238       O597   1.917       .  S
Ni238       O243   1.900   1_655  S
C239        C305   1.485       .  S
C239        O249   1.280       .  A
O240       Ni612   1.918       .  S
O240        C246   1.274       .  A
O241       Ni594   1.916       .  S
O241        C246   1.274       .  A
C242        C346   1.479       .  S
O243        C245   1.266       .  A
O244       Ni255   1.942       .  S
C245        C334   1.469       .  S
C245        O251   1.268       .  A
C246        C321   1.475       .  S
H247        O248   0.966       .  S
O248       Ni255   1.929       .  S
Ni250       O254   1.916       .  S
O251       Ni256   1.920       .  S
C253        C297   1.471       .  S
C253        O254   1.268       .  A
Ni256       O596   1.917   1_455  S
H257        O590   0.966       .  S
N258        C262   1.357       .  A
N258        C259   1.352       .  A
N258        C318   1.439       .  S
C259        C260   1.383       .  A
C259        C294   1.476       .  S
C260        C261   1.374       .  A
C260        H263   1.082       .  S
C261        C262   1.383       .  A
C261        H264   1.082       .  S
C262        C302   1.480       .  S
N265        C269   1.356       .  A
N265        C622   1.354       .  A
N265        C314   1.439   1_655  S
C266        N621   1.355       .  A
C266        C267   1.385       .  A
C266        C290   1.488       .  S
C267        C624   1.383       .  A
C267        H270   1.080       .  S
C268        C623   1.383       .  A
C268        C269   1.383       .  A
C268        H271   1.082       .  S
C269        C306   1.480   1_655  S
C272        N273   1.359       .  A
C272        N277   1.359       .  A
C272        C289   1.469       .  S
N273        C274   1.358       .  A
C274        N275   1.358       .  A
C274        C285   1.473       .  S
N275        C276   1.357       .  A
C276        N277   1.359       .  A
C276        C293   1.471       .  S
N278        C282   1.360       .  A
N278        C279   1.357       .  A
N278        C309   1.448       .  S
C279        C280   1.383       .  A
C279        C642   1.482   1_455  S
C280        C281   1.372       .  A
C280        H283   1.082       .  S
C281        C282   1.389       .  A
C281        H284   1.081       .  S
C282        C298   1.495       .  S
C285        C286   1.345       .  D
C285        H287   1.087       .  S
C286        C635   1.480       .  S
C286        H288   1.086       .  S
C289        C290   1.346       .  D
C289        H291   1.086       .  S
C290        H292   1.086       .  S
C293        C294   1.342       .  D
C293        H295   1.088       .  S
C294        H296   1.086       .  S
C297        C298   1.343       .  D
C297        H299   1.084       .  S
C298        H300   1.084       .  S
C301        C302   1.342       .  D
C301        H303   1.087       .  S
C302        H304   1.086       .  S
C305        C306   1.347       .  D
C305        H307   1.087   1_455  S
C306        H308   1.086       .  S
C309        C310   1.348       .  D
C309        H311   1.086   1_455  S
C310        H312   1.085       .  S
C313        C314   1.340       .  D
C313        H315   1.086       .  S
C314        H316   1.087       .  S
C317        C318   1.341       .  D
C317        H319   1.087       .  S
C318        H320   1.086       .  S
C321        C322   1.344       .  D
C321        H323   1.086       .  S
C322        H324   1.087       .  S
C325        C326   1.343       .  D
C325        H327   1.086       .  S
C326        H328   1.087       .  S
C329        C330   1.346       .  D
C329        H331   1.087       .  S
C330        H332   1.086       .  S
C333        C334   1.342       .  D
C333        H335   1.086       .  S
C334        H336   1.086       .  S
C337        C338   1.342       .  D
C337        H339   1.083       .  S
C338        H340   1.085       .  S
C341        C342   1.342       .  D
C341        H343   1.086       .  S
C342        H344   1.088       .  S
C345        C346   1.347       .  D
C345        H347   1.086       .  S
C346        H348   1.085       .  S
C349        C350   1.349       .  D
C349        H351   1.084       .  S
C350        H352   1.086       .  S
C353        C354   1.352       .  D
C353        H355   1.086       .  S
C354        H356   1.086       .  S
N357        C361   1.363       .  A
N357        C358   1.361       .  A
N357        C523   1.448       .  S
C358        C359   1.383       .  A
C358        C532   1.487       .  S
C359        C360   1.370       .  A
C359        H362   1.081       .  S
C360        C361   1.387       .  A
C360        H363   1.082       .  S
C361        C527   1.491       .  S
N364        C368   1.358       .  A
N364        C365   1.357       .  A
N364        C511   1.439       .  S
C365        C366   1.386       .  A
C365        C519   1.491       .  S
C366        C367   1.378       .  A
C366        H369   1.082       .  S
C367        C368   1.386       .  A
C367        H370   1.082       .  S
C368        C515   1.495       .  S
C371        N372   1.362       .  A
C371        N376   1.363       .  A
C371        C520   1.481       .  S
N372        C373   1.359       .  A
C373        N374   1.357       .  A
C373        C507   1.479       .  S
N374        C375   1.355       .  A
C375        N376   1.360       .  A
C375        C531   1.476       .  S
N377        C381   1.351       .  A
N377        C378   1.356       .  A
N377        C500   1.440       .  S
C378        C379   1.387       .  A
C378        C508   1.487       .  S
C379        C380   1.383       .  A
C379        H382   1.080       .  S
C380        C381   1.383       .  A
C380        H383   1.082       .  S
C381        C503   1.482       .  S
O384       Ni390   1.925   1_556  S
O384        C405   1.270       .  A
O385       Ni408   1.896       .  S
O385        C394   1.265       .  A
O386       Ni390   1.911       .  S
O386       Ni586   1.898   1_545  S
O386       Ni580   1.902   1_554  S
O386        H409   0.967   1_554  S
C387        C504   1.478       .  S
C387        O404   1.265       .  A
C387        O396   1.273       .  A
O388       Ni407   1.929       .  S
O388        C394   1.272       .  A
O389       Ni407   1.896   1_556  S
O389        C391   1.271       .  A
Ni390       O393   1.930       .  S
Ni390       O395   1.906       .  S
C391        C516   1.475       .  S
C391        O401   1.287       .  A
O392       Ni586   1.906   1_545  S
O392        C398   1.271       .  A
O393        C398   1.277       .  A
C394        C488   1.473       .  S
O395        C397   1.268       .  A
C397        C491   1.478       .  S
C397        O403   1.269       .  A
C398        C495   1.473       .  S
O400       Ni408   1.928       .  S
O400       Ni402   1.912   1_554  S
O400       Ni407   1.920       .  S
O401       Ni402   1.972       .  S
Ni402       O584   1.921       .  S
Ni402       O564   1.915   1_556  S
O403       Ni586   1.927   1_545  S
C405        C528   1.472       .  S
C405        O406   1.271       .  A
O406       Ni580   1.926       .  S
Ni408       O570   1.903       .  S
Ni408       O581   1.934       .  S
Ni408       O564   1.905       .  S
O410       Ni416   1.924       .  S
O410        C431   1.268       .  A
O411       Ni612   1.898   1_545  S
O411        C420   1.265       .  A
O412       Ni416   1.921       .  S
O412       Ni434   1.900       .  S
O412       Ni428   1.902       .  S
C413        C479   1.475       .  S
C413        O430   1.266       .  A
C413        O422   1.275       .  A
O414       Ni433   1.944       .  S
O414        C420   1.277       .  A
O415       Ni433   1.898       .  S
O415        C417   1.271       .  A
Ni416       O421   1.904       .  S
C417        C483   1.468       .  S
C417        O427   1.279       .  A
O418        C424   1.273       .  A
O419        C424   1.275       .  A
C420        C524   1.483       .  S
O421        C423   1.266       .  A
O422       Ni433   1.943       .  S
C423        C512   1.471       .  S
C423        O429   1.267       .  A
C424        C499   1.477       .  S
H425        O426   0.967       .  S
O426       Ni612   1.925   1_545  S
O426       Ni606   1.912   1_545  S
O426       Ni433   1.920       .  S
O427       Ni606   1.950   1_545  S
Ni428       O605   1.946       .  S
Ni428       O432   1.911       .  S
Ni428       O608   1.900       .  S
Ni428       O604   1.912       .  S
O429       Ni434   1.920       .  S
O430       Ni606   1.901   1_545  S
C431        C475   1.469       .  S
C431        O432   1.269       .  A
Ni434       O589   1.880       .  S
Ni434       O604   1.917       .  S
N436        C440   1.355       .  A
N436        C437   1.351       .  A
N436        C496   1.436       .  S
C437        C438   1.385       .  A
C437        C472   1.479       .  S
C438        C439   1.376       .  A
C438        H441   1.082       .  S
C439        C440   1.382       .  A
C439        H442   1.082       .  S
C440        C480   1.477       .  S
N443        C447   1.354       .  A
N443        C492   1.440       .  S
C444        C445   1.385       .  A
C444        C468   1.485       .  S
C445        H448   1.081       .  S
C446        C447   1.383       .  A
C446        H449   1.082       .  S
C447        C484   1.477       .  S
C450        N451   1.361       .  A
C450        N455   1.361       .  A
C450        C467   1.469       .  S
N451        C452   1.358       .  A
C452        N453   1.355       .  A
C452        C463   1.474       .  S
N453        C454   1.353       .  A
C454        N455   1.360       .  A
C454        C471   1.472       .  S
N456        C460   1.357       .  A
N456        C457   1.353       .  A
N456        C487   1.445       .  S
C457        C458   1.382       .  A
C458        C459   1.375       .  A
C458        H461   1.082       .  S
C459        C460   1.390       .  A
C459        H462   1.081       .  S
C460        C476   1.491       .  S
C463        C464   1.344       .  D
C463        H465   1.086   1_655  S
C464        H466   1.086       .  S
C467        C468   1.345       .  D
C467        H469   1.086       .  S
C468        H470   1.086       .  S
C471        C472   1.340       .  D
C471        H473   1.088       .  S
C472        H474   1.086       .  S
C475        C476   1.341       .  D
C475        H477   1.084       .  S
C476        H478   1.084       .  S
C479        C480   1.341       .  D
C479        H481   1.087       .  S
C480        H482   1.086       .  S
C483        C484   1.342       .  D
C483        H485   1.086       .  S
C484        H486   1.087       .  S
C487        C488   1.344       .  D
C487        H489   1.086       .  S
C488        H490   1.085       .  S
C491        C492   1.343       .  D
C491        H493   1.086       .  S
C492        H494   1.087       .  S
C495        C496   1.340       .  D
C495        H497   1.087       .  S
C496        H498   1.086       .  S
C499        C500   1.345       .  D
C499        H501   1.087       .  S
C500        H502   1.086       .  S
C503        C504   1.341       .  D
C503        H505   1.087       .  S
C504        H506   1.087       .  S
C507        C508   1.348       .  D
C507        H509   1.087       .  S
C508        H510   1.085       .  S
C511        C512   1.342       .  D
C511        H513   1.086       .  S
C512        H514   1.087       .  S
C515        C516   1.343       .  D
C515        H517   1.084       .  S
C516        H518   1.086       .  S
C519        C520   1.348       .  D
C519        H521   1.085       .  S
C520        H522   1.085       .  S
C523        C524   1.345       .  D
C523        H525   1.087       .  S
C524        H526   1.084       .  S
C527        C528   1.346       .  D
C527        H529   1.086       .  S
C528        H530   1.087       .  S
C531        C532   1.350       .  D
C531        H533   1.086       .  S
C532        H534   1.086       .  S
N535        C539   1.361       .  A
N535        C536   1.356       .  A
N535        C701   1.444       .  S
C536        C537   1.386       .  A
C536        C710   1.486       .  S
C537        C538   1.372       .  A
C537        H540   1.082       .  S
C538        C539   1.385       .  A
C538        H541   1.082       .  S
C539        C705   1.496       .  S
N542        C546   1.357       .  A
N542        C543   1.352       .  A
N542        C689   1.438       .  S
C543        C544   1.385       .  A
C543        C697   1.484       .  S
C544        C545   1.379       .  A
C544        H547   1.082       .  S
C545        C546   1.385       .  A
C545        H548   1.082       .  S
C546        C693   1.487       .  S
C549        N550   1.354       .  A
C549        N554   1.359       .  A
C549        C698   1.478       .  S
N550        C551   1.357       .  A
C551        N552   1.359       .  A
C551        C685   1.473       .  S
N552        C553   1.361       .  A
C553        N554   1.361       .  A
C553        C709   1.478       .  S
N555        C559   1.355       .  A
N555        C556   1.352       .  A
N555        C678   1.437       .  S
C556        C557   1.385       .  A
C556        C686   1.475       .  S
C557        C558   1.374       .  A
C557        H560   1.082       .  S
C558        C559   1.380       .  A
C558        H561   1.082       .  S
C559        C681   1.469       .  S
O562       Ni568   1.926   1_556  S
O562        C583   1.273       .  A
O563       Ni586   1.889       .  S
O563        C572   1.262       .  A
O564       Ni568   1.916       .  S
O564        H587   0.966   1_554  S
C565        C682   1.477       .  S
C565        O582   1.266       .  A
C565        O574   1.272       .  A
O566       Ni585   1.938   1_554  S
O566        C572   1.272       .  A
O567       Ni585   1.900       .  S
O567        C569   1.270       .  A
Ni568       O571   1.943       .  S
Ni568       O573   1.903       .  S
C569        C694   1.470       .  S
C569        O579   1.283       .  A
O570        C576   1.268       .  A
O571        C576   1.275       .  A
C572        C666   1.473       .  S
O573        C575   1.269       .  A
C575        C669   1.475       .  S
C575        O581   1.272       .  A
C576        C673   1.478       .  S
O578       Ni586   1.929       .  S
O578       Ni580   1.921   1_564  S
O578       Ni585   1.920   1_554  S
O579       Ni580   1.958   1_565  S
C583        C706   1.477       .  S
C583        O584   1.272       .  A
O588       Ni594   1.922       .  S
O588        C609   1.267       .  A
O589        C598   1.260       .  A
O590       Ni594   1.920       .  S
O590       Ni612   1.907       .  S
O590       Ni606   1.904       .  S
C591        C657   1.470       .  S
C591        O608   1.267       .  A
C591        O600   1.276       .  A
O592       Ni611   1.954       .  S
O592        C598   1.278       .  A
O593       Ni611   1.909       .  S
O593        C595   1.273       .  A
Ni594       O599   1.905       .  S
C595        C661   1.480       .  S
C595        O605   1.279       .  A
O596        C602   1.272       .  A
O597        C602   1.274       .  A
C598        C702   1.470       .  S
O599        C601   1.266       .  A
O600       Ni611   1.938       .  S
C601        C690   1.467       .  S
C601        O607   1.266       .  A
C602        C677   1.477       .  S
H603        O604   0.966       .  S
O604       Ni611   1.926       .  S
Ni606       O610   1.918       .  S
O607       Ni612   1.913       .  S
C609        C653   1.470       .  S
C609        O610   1.268       .  A
N614        C618   1.357       .  A
N614        C615   1.355       .  A
N614        C674   1.442       .  S
C615        C616   1.385       .  A
C615        C650   1.479       .  S
C616        C617   1.373       .  A
C616        H619   1.082       .  S
C617        C618   1.383       .  A
C617        H620   1.082       .  S
C618        C658   1.480       .  S
N621        C625   1.355       .  A
N621        C670   1.441       .  S
C622        C623   1.385       .  A
C622        C646   1.488       .  S
C623        H626   1.081       .  S
C624        C625   1.382       .  A
C624        H627   1.082       .  S
C625        C662   1.481       .  S
C628        N629   1.360       .  A
C628        N633   1.358       .  A
C628        C645   1.467       .  S
N629        C630   1.358       .  A
C630        N631   1.359       .  A
C630        C641   1.475       .  S
N631        C632   1.358       .  A
C632        N633   1.358       .  A
C632        C649   1.472       .  S
N634        C638   1.362       .  A
N634        C635   1.356       .  A
N634        C665   1.447       .  S
C635        C636   1.382       .  A
C636        C637   1.371       .  A
C636        H639   1.082       .  S
C637        C638   1.390       .  A
C637        H640   1.080       .  S
C638        C654   1.496       .  S
C641        C642   1.346       .  D
C641        H643   1.086   1_655  S
C642        H644   1.086       .  S
C645        C646   1.345       .  D
C645        H647   1.086       .  S
C646        H648   1.086       .  S
C649        C650   1.345       .  D
C649        H651   1.088       .  S
C650        H652   1.086       .  S
C653        C654   1.343       .  D
C653        H655   1.083       .  S
C654        H656   1.085       .  S
C657        C658   1.340       .  D
C657        H659   1.087       .  S
C658        H660   1.086       .  S
C661        C662   1.346       .  D
C661        H663   1.086       .  S
C662        H664   1.086       .  S
C665        C666   1.345       .  D
C665        H667   1.086       .  S
C666        H668   1.085       .  S
C669        C670   1.343       .  D
C669        H671   1.086       .  S
C670        H672   1.087       .  S
C673        C674   1.345       .  D
C673        H675   1.087       .  S
C674        H676   1.086       .  S
C677        C678   1.343       .  D
C677        H679   1.086       .  S
C678        H680   1.087       .  S
C681        C682   1.343       .  D
C681        H683   1.086       .  S
C682        H684   1.087       .  S
C685        C686   1.344       .  D
C685        H687   1.087       .  S
C686        H688   1.087       .  S
C689        C690   1.341       .  D
C689        H691   1.086       .  S
C690        H692   1.086       .  S
C693        C694   1.341       .  D
C693        H695   1.084       .  S
C694        H696   1.086       .  S
C697        C698   1.343       .  D
C697        H699   1.086       .  S
C698        H700   1.087       .  S
C701        C702   1.341       .  D
C701        H703   1.086       .  S
C702        H704   1.086       .  S
C705        C706   1.347       .  D
C705        H707   1.084       .  S
C706        H708   1.087       .  S
C709        C710   1.348       .  D
C709        H711   1.086       .  S
C710        H712   1.086       .  S
