geometry optimzed in LAMMPS
_audit_creation_date              2020-11-30 
_audit_creation_method            'lammps2cif' 
_symmetry_space_group_name_H-M    'P1' 
_symmetry_Int_Tables_number       1 
_symmetry_cell_setting            triclinic 
loop_ 
_symmetry_equiv_pos_as_xyz 
  x,y,z 
_cell_length_a                    22.912961899651126 
_cell_length_b                    22.65154065596281 
_cell_length_c                    50.62424052883897 
_cell_angle_alpha                 89.9185411322699 
_cell_angle_beta                  89.38057793643065 
_cell_angle_gamma                 89.596589368945 
loop_ 
_atom_site_label 
_atom_site_type_symbol 
_atom_site_fract_x 
_atom_site_fract_y 
_atom_site_fract_z 
_atom_site_charge 
C1          C  0.25817685  0.50612529  0.25091426    -0.02990
C2          C  0.99661177  0.27040637  0.01376694     0.00060
C3          C  0.00611656  0.27291310  0.98745221     0.00060
C4          C  0.24614735  0.99993932  0.75012271    -0.02990
C5          C  0.99561438  0.24938919  0.75115552    -0.02990
C6          C  0.23719103  0.00826336  0.98818976     0.00060
C7          C  0.25073466  0.00339365  0.01402441     0.00060
C8          C  0.22976990  0.40141543  0.89075088     0.41960
N9          N  0.26290473  0.36829414  0.85356764     0.00850
C10         C  0.08010252  0.19261414  0.77908820    -0.07030
H11         H  0.11024832  0.14290789  0.87991499     0.06340
C12         C  0.30644209  0.10398560  0.87195835    -0.07380
Co13       Co  0.16338894  0.32124612  0.82315768     0.74180
N14         N  0.12835339  0.21170939  0.85241195    -0.26560
Co15       Co  0.17391403  0.16783962  0.82332099     0.74070
C16         C  0.25724022  0.08528108  0.88802757     0.42060
N17         N  0.36661787  0.22798674  0.85186378     0.00460
N18         N  0.22578378  0.12651171  0.85240407     0.00570
N19         N  0.07615710  0.29217413  0.77994011    -0.47410
H20         H  0.13525832  0.39288690  0.87787022     0.06320
N21         N  0.12393854  0.26957106  0.85320782     0.00850
N22         N  0.22311927  0.12327780  0.79466582     0.00590
C23         C  0.24936557  0.05469922  0.76755087     0.42200
N24         N  0.36196833  0.28583046  0.85108251    -0.26020
C25         C  0.18939064  0.41504255  0.77811827    -0.06940
N26         N  0.27936848  0.38731505  0.87718098    -0.47120
N27         N  0.20289444  0.08064848  0.77946402    -0.47350
C28         C  0.24209147  0.44466291  0.76767035     0.41970
N29         N  0.11875782  0.27159836  0.79502955     0.00840
N30         N  0.36733861  0.28550325  0.79461860    -0.26040
N31         N  0.20567395  0.36740136  0.85175066    -0.26530
N32         N  0.37015089  0.22705756  0.79424137     0.00480
H33         H  0.42225931  0.35205052  0.77692132     0.06370
H34         H  0.34690672  0.07297315  0.77489648     0.06400
N35         N  0.12171646  0.21316232  0.79524873    -0.26580
N36         N  0.28299141  0.13007132  0.85098823    -0.26190
N37         N  0.26658398  0.37600163  0.79509844     0.00840
C38         C  0.09324591  0.23929936  0.89149982     0.42240
C39         C  0.38896924  0.30928437  0.87161768    -0.07440
N40         N  0.28087559  0.12621424  0.79431434    -0.26190
H41         H  0.35246718  0.10242457  0.87620168     0.06390
N42         N  0.10398002  0.28785173  0.87656775    -0.47410
H43         H  0.39025990  0.35584395  0.87615527     0.06380
C44         C  0.44067388  0.25337545  0.76846322     0.42080
C45         C  0.18144235  0.39049859  0.87348679    -0.06940
Co46       Co  0.31509551  0.32985191  0.82325598     0.73820
N47         N  0.39428211  0.20989593  0.87339432    -0.47130
C48         C  0.05001754  0.24533618  0.76863454     0.42340
N49         N  0.28775765  0.41840018  0.77968391    -0.47120
Co50       Co  0.32577570  0.17718166  0.82246363     0.73890
C51         C  0.30138382  0.08457702  0.77766826    -0.07450
C52         C  0.10824730  0.18896052  0.87501277    -0.07010
N53         N  0.20885319  0.37320406  0.79482456    -0.26540
N54         N  0.20846688  0.10098207  0.87476273    -0.47300
H55         H  0.06884865  0.14665290  0.77675316     0.06350
C56         C  0.41017591  0.30616551  0.77880982    -0.07420
Cl57       Cl  0.24454149  0.24899365  0.82193108    -0.50430
C58         C  0.40941929  0.25925520  0.88682259     0.42110
H59         H  0.14402888  0.42680723  0.77537406     0.06320
N60         N  0.41360421  0.20644955  0.77934686    -0.47140
C61         C  0.06381840  0.25737843  0.23266120     0.41960
N62         N  0.13430960  0.28506482  0.20670788     0.00850
C63         C  0.30704281  0.10865549  0.12712368    -0.07030
H64         H  0.35668515  0.07496100  0.22284087     0.06340
C65         C  0.42524657  0.30953513  0.22101633    -0.07380
Co66       Co  0.18540693  0.17879590  0.17945141     0.74180
N67         N  0.29129119  0.13265269  0.20663558    -0.26560
Co68       Co  0.33739631  0.18073680  0.17794211     0.74070
C69         C  0.45424458  0.25763033  0.23228187     0.42060
N70         N  0.28596447  0.38321551  0.20550807     0.00460
N71         N  0.38540321  0.22991203  0.20605124     0.00570
N72         N  0.20877310  0.10849240  0.13017216    -0.47410
H73         H  0.08319120  0.15949716  0.22430563     0.06320
N74         N  0.23351622  0.13252570  0.20789731     0.00850
N75         N  0.37939602  0.22784541  0.14808375     0.00590
C76         C  0.41669143  0.25069882  0.11019656     0.42200
N77         N  0.22822219  0.38222704  0.20478933    -0.26020
C78         C  0.11081144  0.20363699  0.12940976    -0.06940
N79         N  0.09012884  0.30522091  0.22154939    -0.47120
N80         N  0.40010021  0.20528472  0.12573445    -0.47350
C81         C  0.09491802  0.25621966  0.11410297     0.41970
N82         N  0.23230652  0.13393938  0.15086535     0.00840
N83         N  0.23040048  0.37296809  0.14671796    -0.26040
N84         N  0.13717454  0.22665906  0.20700178    -0.26530
N85         N  0.28783490  0.37566006  0.14762944     0.00480
H86         H  0.16987270  0.39205596  0.11511990     0.06370
H87         H  0.40998913  0.34953416  0.11921453     0.06400
N88         N  0.28976270  0.13540242  0.14957474    -0.26580
N89         N  0.38347681  0.28835800  0.20538445    -0.26190
N90         N  0.13928805  0.28206455  0.14939824     0.00840
C91         C  0.25970433  0.06144070  0.23363939     0.42240
C92         C  0.20702861  0.42382112  0.22113624    -0.07440
N93         N  0.37978202  0.28595792  0.14808606    -0.26190
H94         H  0.43718493  0.35549747  0.22251318     0.06390
N95         N  0.21294988  0.09009218  0.22351771    -0.47410
H96         H  0.16143516  0.43579603  0.22321956     0.06380
C97         C  0.26817764  0.40324536  0.10809777     0.42080
C98         C  0.09475033  0.20555760  0.22256776    -0.06940
Co99       Co  0.18234189  0.33184181  0.17723356     0.73820
N100        N  0.30553961  0.42471825  0.22173473    -0.47130
C101        C  0.25300225  0.09185959  0.11423594     0.42340
N102        N  0.11287938  0.30287717  0.12825048    -0.47120
Co103      Co  0.33489140  0.33430946  0.17717950     0.73890
C104        C  0.40480036  0.30423649  0.12540883    -0.07450
C105        C  0.31154347  0.08902457  0.22190947    -0.07010
N106        N  0.13986263  0.22406111  0.15029910    -0.26540
N107        N  0.42769506  0.20984630  0.22162708    -0.47300
H108        H  0.35139805  0.10426650  0.11992520     0.06350
C109        C  0.21383496  0.39130331  0.12254867    -0.07420
Cl110      Cl  0.26000266  0.25643982  0.17864346    -0.50430
C111        C  0.25810823  0.45142979  0.23296969     0.42110
H112        H  0.10359138  0.15756911  0.12530757     0.06320
N113        N  0.31160929  0.39385095  0.12516081    -0.47140
C114        C  0.49249828  0.19485705  0.73335760     0.41960
N115        N  0.02003369  0.12606481  0.70638131     0.00850
C116        C  0.35473049  0.44151761  0.62816443    -0.07030
H117        H  0.32363584  0.40043076  0.72604653     0.06340
C118        C  0.05059494  0.33375243  0.72307373    -0.07380
Co119      Co  0.41953914  0.07408430  0.67613140     0.74180
N120        N  0.37428639  0.46767648  0.70649225    -0.26560
Co121      Co  0.42416996  0.42045827  0.67919028     0.74070
C122        C  0.49874771  0.30463171  0.73394360     0.42060
N123        N  0.12156753  0.47461491  0.70769537     0.00460
N124        N  0.47230403  0.37452955  0.70756379     0.00570
N125        N  0.36212005  0.03987978  0.62370459    -0.47410
H126        H  0.39563289  0.18045882  0.72309368     0.06320
N127        N  0.36962983  0.02595670  0.70511344     0.00850
N128        N  0.47242266  0.37759846  0.65037596     0.00590
C129        C  0.99305804  0.34798138  0.61118839     0.42200
N130        N  0.11815634  0.03303025  0.70794072    -0.26020
C131        C  0.45664179  0.13943360  0.62282542    -0.06940
N132        N  0.03952986  0.16726902  0.72257581    -0.47120
N133        N  0.44936601  0.35631435  0.62856086    -0.47350
C134        C  0.01254031  0.15577735  0.61032319     0.41970
N135        N  0.38110281  0.02225868  0.64707032     0.00840
N136        N  0.11991279  0.03263048  0.65124248    -0.26040
N137        N  0.46234113  0.12565982  0.70491453    -0.26530
N138        N  0.12036263  0.47469967  0.65091465     0.00480
H139        H  0.15633160  0.09786087  0.62496039     0.06370
H140        H  0.09027418  0.36559484  0.61677454     0.06400
N141        N  0.37956035  0.46451500  0.64959459    -0.26580
N142        N  0.03000860  0.37600343  0.70695863    -0.26190
N143        N  0.02742100  0.12006525  0.64906988     0.00840
C144        C  0.30069539  0.99838939  0.73220530     0.42240
C145        C  0.15998207  0.05432942  0.72356935    -0.07440
N146        N  0.02960392  0.38297326  0.64884106    -0.26190
H147        H  0.09604408  0.32146101  0.72502310     0.06390
N148        N  0.32532562  0.04586161  0.71991270    -0.47410
H149        H  0.17162388  0.10035048  0.72520776     0.06380
C150        C  0.16755182  0.99888132  0.61577814     0.42080
C151        C  0.44106702  0.16770208  0.72125304    -0.06940
Co152      Co  0.07144697  0.07869759  0.67922799     0.73820
N153        N  0.16558184  0.45473455  0.72211029    -0.47130
C154        C  0.34557833  0.99113458  0.61036482     0.42340
N155        N  0.05376006  0.14208409  0.62794472    -0.47120
Co156      Co  0.07602815  0.42602422  0.67886579     0.73890
C157        C  0.04662219  0.36454747  0.62467872    -0.07450
C158        C  0.33334260  0.44662772  0.72308384    -0.07010
N159        N  0.47030344  0.11708204  0.64672793    -0.26540
N160        N  0.45207192  0.33165946  0.72290131    -0.47300
H161        H  0.34894111  0.39502790  0.62452035     0.06350
C162        C  0.15017916  0.05210121  0.63021967    -0.07420
Cl163      Cl  0.99762805  0.99998845  0.67949125    -0.50430
C164        C  0.19140667  0.50232110  0.73317132     0.42110
H165        H  0.41340223  0.14212768  0.61485637     0.06320
N166        N  0.14808305  0.45299995  0.63015105    -0.47140
C167        C  0.20295945  0.50603443  0.26854851     0.41960
N168        N  0.13341399  0.03338710  0.29548054     0.00850
C169        C  0.45898958  0.36917207  0.37664933    -0.07030
H170        H  0.41037481  0.32820589  0.27749093     0.06340
C171        C  0.34166661  0.05863118  0.27869845    -0.07380
Co172      Co  0.08143769  0.42778728  0.32254699     0.74180
N173        N  0.47633850  0.38233258  0.29496688    -0.26560
Co174      Co  0.42930794  0.43191771  0.32277696     0.74070
C175        C  0.31255976  0.00648484  0.26822208     0.42060
N176        N  0.48121482  0.13228670  0.29396148     0.00460
N177        N  0.38282117  0.47936062  0.29376345     0.00570
N178        N  0.05648772  0.36307857  0.37316129    -0.47410
H179        H  0.18456538  0.40794955  0.27680539     0.06320
N180        N  0.03407923  0.38107610  0.29397709     0.00850
N181        N  0.38459120  0.48073734  0.35082301     0.00590
C182        C  0.34183397  0.00488547  0.38732549     0.42200
N183        N  0.03890581  0.13164352  0.29556911    -0.26020
C184        C  0.14700039  0.45177490  0.37459449    -0.06940
N185        N  0.17655151  0.05363672  0.28012468    -0.47120
N186        N  0.35877324  0.45909557  0.37205325    -0.47350
C187        C  0.15393292  0.00274287  0.39171501     0.41970
N188        N  0.03344164  0.38502385  0.35143229     0.00840
N189        N  0.03277287  0.12534489  0.35319027    -0.26040
N190        N  0.13097229  0.47499011  0.29509625    -0.26530
N191        N  0.47556071  0.12827974  0.35143126     0.00480
H192        H  0.09128327  0.15179426  0.38394209     0.06370
H193        H  0.35308314  0.10405471  0.37733542     0.06400
N194        N  0.47612731  0.38925567  0.35277340    -0.26580
N195        N  0.38442977  0.03781042  0.29392826    -0.26190
N196        N  0.12246168  0.03114262  0.35375632     0.00840
C197        C  0.50736137  0.31196264  0.26743747     0.42240
C198        C  0.06020659  0.17427359  0.27988259    -0.07440
N199        N  0.38547409  0.03865212  0.35073804    -0.26190
H200        H  0.32872048  0.10452779  0.27733040     0.06390
N201        N  0.05438354  0.33874798  0.27811205    -0.47410
H202        H  0.10551514  0.18718676  0.27872783     0.06380
C203        C  0.99275224  0.16708048  0.38928699     0.42080
C204        C  0.17303338  0.45406262  0.27902674    -0.06940
Co205      Co  0.08302340  0.08137614  0.32422318     0.73820
N206        N  0.46178121  0.17427577  0.27781352    -0.47130
C207        C  0.01267508  0.35182928  0.39010252     0.42340
N208        N  0.13899597  0.05043959  0.37719060    -0.47120
Co209      Co  0.43124725  0.08500356  0.32198171     0.73890
C210        C  0.35819056  0.05816025  0.37258750    -0.07450
C211        C  0.45577201  0.34033143  0.27909166    -0.07010
N212        N  0.12436729  0.47318145  0.35220061    -0.26540
N213        N  0.33990877  0.45888736  0.27887308    -0.47300
H214        H  0.41492936  0.36914229  0.38431306     0.06350
C215        C  0.04768229  0.14917592  0.37645390    -0.07420
Cl216      Cl  0.00630632  0.00662648  0.32211391    -0.50430
C217        C  0.50920524  0.20195304  0.26753937     0.42110
H218        H  0.15272870  0.40569883  0.37938350     0.06320
N219        N  0.45033884  0.15208853  0.37251608    -0.47140
C220        C  0.00860594  0.24025528  0.51404105     0.00060
C221        C  0.99914750  0.24243843  0.48744627     0.00060
C222        C  0.25302958  0.48083480  0.51376282     0.00060
C223        C  0.24546997  0.47387566  0.48745113     0.00060
C224        C  0.00852134  0.25715203  0.24990968    -0.02990
C225        C  0.96590161  0.19660297  0.47225801    -0.06630
C226        C  0.92547050  0.22071402  0.45438311    -0.17750
C227        C  0.43455672  0.21409545  0.42701211     0.10570
C228        C  0.98143870  0.17797078  0.41778304    -0.06550
C229        C  0.01173604  0.14373898  0.43645951    -0.17790
C230        C  0.99447668  0.14548446  0.46317929     0.10600
S231        S  0.38551679  0.25383989  0.40560151    -0.32750
S232        S  0.96204134  0.07776572  0.47442210    -0.32760
H233        H  0.00017215  0.04002029  0.46029839     0.28610
H234        H  0.42307901  0.25708452  0.38364909     0.28610
H235        H  0.39477167  0.25404257  0.46116496     0.19200
H236        H  0.03909252  0.10763041  0.42956978     0.19210
C237        C  0.02031097  0.29253926  0.47060349    -0.06630
C238        C  0.06493138  0.27644252  0.45273017    -0.17750
C239        C  0.06612289  0.29809698  0.42682533     0.10570
C240        C  0.02104415  0.33640740  0.41828958    -0.06550
C241        C  0.48307607  0.36063025  0.43735901    -0.17790
C242        C  0.48342500  0.34041931  0.46353930     0.10600
S243        S  0.12406519  0.27160569  0.40554005    -0.32750
S244        S  0.43476691  0.37637993  0.48646846    -0.32760
H245        H  0.41162162  0.32363525  0.49622830     0.28610
H246        H  0.08831620  0.26061194  0.38381396     0.28610
H247        H  0.09504372  0.24134599  0.45801196     0.19200
H248        H  0.45156532  0.39409556  0.43168814     0.19210
C249        C  0.15693681  0.00129417  0.42108984    -0.06630
C250        C  0.14743684  0.44756264  0.43458332    -0.17750
C251        C  0.16030035  0.44220432  0.46147492     0.10570
C252        C  0.18909588  0.48818578  0.47419082    -0.06550
C253        C  0.18496624  0.04457985  0.46278242    -0.17790
C254        C  0.16930459  0.05180512  0.43634798     0.10600
S255        S  0.14448940  0.37510022  0.47878246    -0.32750
S256        S  0.17209738  0.12498232  0.42244826    -0.32760
H257        H  0.17181832  0.15584426  0.44655820     0.28610
H258        H  0.13116391  0.40469197  0.50241939     0.28610
H259        H  0.13120719  0.40938779  0.42428852     0.19200
H260        H  0.20409714  0.08171282  0.47248914     0.19210
C261        C  0.32771534  0.99609899  0.41578264    -0.06630
C262        C  0.31572747  0.43808172  0.42384467    -0.17750
C263        C  0.29928159  0.42513156  0.44971029     0.10570
C264        C  0.29559665  0.47094662  0.46862004    -0.06550
C265        C  0.31811329  0.02618840  0.46179773    -0.17790
C266        C  0.32930162  0.04051462  0.43541193     0.10600
S267        S  0.27757931  0.35044220  0.45614692    -0.32750
S268        S  0.33519381  0.11747229  0.42859355    -0.32760
H269        H  0.28980344  0.11688556  0.41024688     0.28610
H270        H  0.32392662  0.33933535  0.47311732     0.28610
H271        H  0.31596215  0.40242352  0.40960278     0.19200
H272        H  0.31536864  0.06176597  0.47606098     0.19210
C273        C  0.17966092  0.99443467  0.58715205    -0.06630
C274        C  0.17846296  0.04582149  0.57162274    -0.17750
C275        C  0.19288891  0.04383873  0.54479866     0.10570
C276        C  0.20357162  0.48848455  0.53261041    -0.06550
C277        C  0.19141302  0.43730843  0.54705209    -0.17790
C278        C  0.18771218  0.43929189  0.57453512     0.10600
S279        S  0.20057370  0.11405254  0.52833843    -0.32750
S280        S  0.20113644  0.37184922  0.59269810    -0.32760
H281        H  0.20279058  0.33301978  0.57105049     0.28610
H282        H  0.24230531  0.09649027  0.50979035     0.28610
H283        H  0.17027056  0.08846072  0.58053990     0.19200
H284        H  0.19690522  0.39507458  0.53754537     0.19210
C285        C  0.34014605  0.98716608  0.58109312    -0.06630
C286        C  0.33981466  0.43145932  0.56881350    -0.17750
C287        C  0.32357425  0.42563432  0.54235199     0.10570
C288        C  0.31077883  0.47684177  0.52728213    -0.06550
C289        C  0.32944595  0.03092852  0.53751136    -0.17790
C290        C  0.33576783  0.03746712  0.56481380     0.10600
S291        S  0.31002005  0.35182693  0.53094143    -0.32750
S292        S  0.32499192  0.10993014  0.57810449    -0.32760
H293        H  0.38323342  0.12315403  0.57274302     0.28610
H294        H  0.27309000  0.36752164  0.51035517     0.28610
H295        H  0.34644056  0.39166003  0.58021597     0.19200
H296        H  0.32541832  0.07036075  0.52570319     0.19210
C297        C  0.04378978  0.19331587  0.52816586    -0.06630
C298        C  0.58257064  0.21610658  0.54698563    -0.17750
C299        C  0.57289377  0.20519695  0.57407790     0.10570
C300        C  0.02662541  0.16751180  0.58202901    -0.06550
C301        C  0.00091138  0.13279329  0.56239507    -0.17790
C302        C  0.01757480  0.13986805  0.53576819     0.10600
S303        S  0.61916747  0.24246484  0.59710248    -0.32750
S304        S  0.04830160  0.07326774  0.52209976    -0.32760
H305        H  0.07917125  0.10128466  0.50142978     0.28610
H306        H  0.57687985  0.24927499  0.61711228     0.28610
H307        H  0.61156163  0.25168309  0.54135425     0.19200
H308        H  0.97797863  0.09319941  0.56830153     0.19210
C309        C  0.98382875  0.33557618  0.58285028    -0.06630
C310        C  0.44214270  0.29373367  0.57571862    -0.17750
C311        C  0.44089778  0.27196205  0.54989236     0.10570
C312        C  0.98559835  0.28738503  0.53191019    -0.06550
C313        C  0.02013418  0.33654743  0.53763117    -0.17790
C314        C  0.01649484  0.36315655  0.56259169     0.10600
S315        S  0.38513317  0.22026122  0.54127726    -0.32750
S316        S  0.04915958  0.43426708  0.56687544    -0.32760
H317        H  0.01112334  0.45294696  0.58726629     0.28610
H318        H  0.38967961  0.22826246  0.51386517     0.28610
H319        H  0.41239673  0.27599204  0.59044859     0.19200
H320        H  0.05178321  0.35202692  0.52327720     0.19210
C321        C  0.24389163  0.07913401  0.08624923    -0.06630
C322        C  0.20175561  0.03752378  0.07989685    -0.17750
C323        C  0.19007401  0.02482236  0.05359495     0.10570
C324        C  0.22794167  0.04644480  0.03353022    -0.06590
C325        C  0.26399056  0.09394065  0.03957820    -0.17790
C326        C  0.26931297  0.11271954  0.06567672     0.10600
S327        S  0.12909875  0.47746474  0.04733645    -0.32750
S328        S  0.30258108  0.18278339  0.07089039    -0.32760
H329        H  0.27211978  0.19737892  0.09421851     0.28610
H330        H  0.14155096  0.46594369  0.02076759     0.28610
H331        H  0.17671162  0.01611404  0.09542502     0.19200
H332        H  0.29161229  0.11325208  0.02441958     0.19210
C333        C  0.27965875  0.45215920  0.02709556    -0.06630
C334        C  0.24494297  0.40365743  0.03388452    -0.17750
C335        C  0.24463782  0.38200193  0.05987074     0.10570
C336        C  0.27824464  0.41049000  0.07928523    -0.06550
C337        C  0.32290436  0.44802244  0.07073914    -0.17790
C338        C  0.32572955  0.46652441  0.04440048     0.10600
S339        S  0.20189222  0.31784627  0.06671355    -0.32750
S340        S  0.38375686  0.51559432  0.03477963    -0.32760
H341        H  0.37218403  0.51262838  0.00765685     0.28610
H342        H  0.23502617  0.29877476  0.08834544     0.28610
H343        H  0.21317407  0.38746477  0.02009157     0.19200
H344        H  0.35343358  0.46580297  0.08480427     0.19210
C345        C  0.26295991  0.05647910  0.97180615    -0.06630
C346        C  0.30949194  0.03694258  0.95566740    -0.17750
C347        C  0.30540900  0.04054367  0.92816979     0.10570
C348        C  0.26022578  0.07497803  0.91682184    -0.06550
C349        C  0.22262167  0.10703497  0.93376265    -0.17790
C350        C  0.22511936  0.09922345  0.96123209     0.10600
S351        S  0.35840304  0.99833866  0.90924348    -0.32750
S352        S  0.17763606  0.14170292  0.98229997    -0.32760
H353        H  0.22331121  0.16136507  0.99819012     0.28610
H354        H  0.32410773  0.99130479  0.88672083     0.28610
H355        H  0.34140064  0.00662693  0.96376570     0.19200
H356        H  0.19157180  0.13826807  0.92567433     0.19210
C357        C  0.21825937  0.45834654  0.97128113    -0.06630
C358        C  0.25927153  0.41442514  0.96440131    -0.17750
C359        C  0.26057103  0.39072004  0.93884243     0.10570
C360        C  0.22345438  0.41418715  0.91934802    -0.06550
C361        C  0.17656948  0.44989028  0.92754775    -0.17790
C362        C  0.17222010  0.46994391  0.95350976     0.10600
S363        S  0.30824883  0.32944003  0.93270450    -0.32750
S364        S  0.10808151  0.51256807  0.96226501    -0.32760
H365        H  0.12392694  0.02688021  0.98804164     0.28610
H366        H  0.27188695  0.30205030  0.91422437     0.28610
H367        H  0.29371255  0.40271150  0.97790110     0.19200
H368        H  0.14413874  0.46434177  0.91349017     0.19210
C369        C  0.04387326  0.27836332  0.03311414    -0.06630
C370        C  0.07448251  0.22764627  0.04025692    -0.17750
C371        C  0.09051961  0.21849018  0.06639214     0.10570
C372        C  0.07889864  0.26205228  0.08585655    -0.06550
C373        C  0.05563383  0.31635858  0.07756840    -0.17790
C374        C  0.03924240  0.32521816  0.05140323     0.10600
S375        S  0.12355508  0.14932945  0.07307191    -0.32750
S376        S  0.00695810  0.39510679  0.04297671    -0.32760
H377        H  0.03167014  0.39487531  0.01753273     0.28610
H378        H  0.17035579  0.17666066  0.08570858     0.28610
H379        H  0.07871431  0.19161107  0.02627294     0.19200
H380        H  0.04879016  0.35179352  0.09164487     0.19210
C381        C  0.44125270  0.24897042  0.02610922    -0.06630
C382        C  0.44754853  0.19561111  0.04005875    -0.17750
C383        C  0.44220620  0.19522269  0.06773029     0.10570
C384        C  0.42171934  0.24672311  0.08093732    -0.06550
C385        C  0.39949694  0.29331012  0.06534857    -0.17790
C386        C  0.40592109  0.29209281  0.03777966     0.10600
S387        S  0.46574778  0.12946929  0.08473510    -0.32750
S388        S  0.37557075  0.34919409  0.01779457    -0.32760
H389        H  0.36355375  0.31159430  0.99651289     0.28610
H390        H  0.49517668  0.15995219  0.10470347     0.28610
H391        H  0.46979410  0.15889492  0.03052334     0.19200
H392        H  0.37709271  0.33030034  0.07444419     0.19210
C393        C  0.06143674  0.25137833  0.97491503    -0.06630
C394        C  0.05597835  0.19629086  0.96263518    -0.17750
C395        C  0.06548918  0.19078891  0.93539443     0.10570
C396        C  0.08843232  0.23917441  0.92087364    -0.06550
C397        C  0.10817282  0.28841878  0.93515239    -0.17790
C398        C  0.09686214  0.29305558  0.96238244     0.10600
S399        S  0.03668871  0.12571007  0.92019810    -0.32750
S400        S  0.12291888  0.35466070  0.98059662    -0.32760
H401        H  0.13045383  0.32271538  0.00410573     0.28610
H402        H  0.09128421  0.09709261  0.92038004     0.28610
H403        H  0.03202168  0.16181056  0.97280970     0.19200
H404        H  0.13077005  0.32387537  0.92510609     0.19210
C405        C  0.45866535  0.28018863  0.96804387    -0.06630
C406        C  0.42961572  0.22902973  0.96044914    -0.17750
C407        C  0.41439319  0.22040342  0.93412865     0.10570
C408        C  0.42698769  0.26374072  0.91486970    -0.06550
C409        C  0.45029589  0.31754314  0.92334944    -0.17790
C410        C  0.46306223  0.32709117  0.94980438     0.10600
S411        S  0.38070151  0.15260502  0.92648636    -0.32750
S412        S  0.48778545  0.39924312  0.95894393    -0.32760
H413        H  0.46545881  0.39522392  0.98471303     0.28610
H414        H  0.33154859  0.18132699  0.91589451     0.28610
H415        H  0.42521743  0.19279279  0.97432193     0.19200
H416        H  0.45818405  0.35298766  0.90943690     0.19210
C417        C  0.25817682  0.00612514  0.25091435    -0.02990
C418        C  0.99661220  0.77040699  0.01376678     0.00060
C419        C  0.00611670  0.77291409  0.98745205     0.00060
C420        C  0.24614721  0.49993922  0.75012285    -0.02990
C421        C  0.99561422  0.74938936  0.75115548    -0.02990
C422        C  0.23718974  0.50826301  0.98818981     0.00060
C423        C  0.25073361  0.50339320  0.01402443     0.00060
C424        C  0.22976975  0.90141570  0.89075087     0.41960
N425        N  0.26290453  0.86829446  0.85356759     0.00850
C426        C  0.08010243  0.69261440  0.77908812    -0.07030
H427        H  0.11024759  0.64290834  0.87991486     0.06340
C428        C  0.30644150  0.60398624  0.87195856    -0.07380
Co429      Co  0.16338881  0.82124647  0.82315756     0.74180
N430        N  0.12835304  0.71170979  0.85241180    -0.26560
Co431      Co  0.17391384  0.66783995  0.82332092     0.74070
C432        C  0.25723945  0.58528173  0.88802768     0.42060
N433        N  0.36661762  0.72798710  0.85186385     0.00460
N434        N  0.22578338  0.62651211  0.85240407     0.00570
N435        N  0.07615699  0.79217440  0.77994000    -0.47410
H436        H  0.13525815  0.89288721  0.87787023     0.06320
N437        N  0.12393821  0.76957146  0.85320763     0.00850
N438        N  0.22311916  0.62327799  0.79466582     0.00590
C439        C  0.24936548  0.55469916  0.76755100     0.42200
N440        N  0.36196813  0.78583082  0.85108250    -0.26020
C441        C  0.18939069  0.91504277  0.77811814    -0.06940
N442        N  0.27936829  0.88731531  0.87718094    -0.47120
N443        N  0.20289434  0.58064861  0.77946407    -0.47350
C444        C  0.24209158  0.94466302  0.76767020     0.41970
N445        N  0.11875778  0.77159868  0.79502941     0.00840
N446        N  0.36733851  0.78550344  0.79461860    -0.26040
N447        N  0.20567375  0.86740170  0.85175062    -0.26530
N448        N  0.37015084  0.72705774  0.79424142     0.00480
H449        H  0.42225905  0.85205070  0.77692120     0.06370
H450        H  0.34690662  0.57297298  0.77489670     0.06400
N451        N  0.12171643  0.71316263  0.79524861    -0.26580
N452        N  0.28299102  0.63007175  0.85098833    -0.26190
N453        N  0.26658397  0.87600185  0.79509836     0.00840
C454        C  0.09324512  0.73929985  0.89149954     0.42240
C455        C  0.38896905  0.80928486  0.87161764    -0.07440
N456        N  0.28087548  0.62621434  0.79431441    -0.26190
H457        H  0.35246654  0.60242533  0.87620201     0.06390
N458        N  0.10397944  0.78785219  0.87656751    -0.47410
H459        H  0.39025975  0.85584447  0.87615518     0.06380
C460        C  0.44067374  0.75337563  0.76846319     0.42080
C461        C  0.18144218  0.89049889  0.87348677    -0.06940
Co462      Co  0.31509537  0.82985218  0.82325594     0.73820
N463        N  0.39428180  0.70989641  0.87339443    -0.47130
C464        C  0.05001741  0.74533641  0.76863448     0.42340
N465        N  0.28775771  0.91840031  0.77968380    -0.47120
Co466      Co  0.32577552  0.67718191  0.82246371     0.73890
C467        C  0.30138373  0.58457696  0.77766841    -0.07450
C468        C  0.10824668  0.68896097  0.87501257    -0.07010
N469        N  0.20885318  0.87320433  0.79482447    -0.26540
N470        N  0.20846625  0.60098259  0.87476272    -0.47300
H471        H  0.06884852  0.64665316  0.77675314     0.06350
C472        C  0.41017573  0.80616569  0.77880976    -0.07420
Cl473      Cl  0.24454134  0.74899394  0.82193104    -0.50430
C474        C  0.40941899  0.75925580  0.88682262     0.42110
H475        H  0.14402895  0.92680746  0.77537390     0.06320
N476        N  0.41360414  0.70644973  0.77934689    -0.47140
C477        C  0.06381852  0.75737857  0.23266107     0.41960
N478        N  0.13430966  0.78506498  0.20670773     0.00850
C479        C  0.30704300  0.60865558  0.12712361    -0.07030
H480        H  0.35668520  0.57496114  0.22284078     0.06340
C481        C  0.42524667  0.80953525  0.22101626    -0.07380
Co482      Co  0.18540705  0.67879609  0.17945127     0.74180
N483        N  0.29129126  0.63265283  0.20663547    -0.26560
Co484      Co  0.33739642  0.68073699  0.17794202     0.74070
C485        C  0.45424472  0.75763044  0.23228175     0.42060
N486        N  0.28596453  0.88321559  0.20550806     0.00460
N487        N  0.38540329  0.72991216  0.20605116     0.00570
N488        N  0.20877327  0.60849246  0.13017209    -0.47410
H489        H  0.08319133  0.65949730  0.22430548     0.06320
N490        N  0.23351628  0.63252584  0.20789719     0.00850
N491        N  0.37939613  0.72784566  0.14808366     0.00590
C492        C  0.41669161  0.75069921  0.11019651     0.42200
N493        N  0.22822225  0.88222715  0.20478928    -0.26020
C494        C  0.11081191  0.70363732  0.12940949    -0.06940
N495        N  0.09012893  0.80522106  0.22154926    -0.47120
N496        N  0.40010034  0.70528504  0.12573435    -0.47350
C497        C  0.09491865  0.75622005  0.11410270     0.41970
N498        N  0.23230668  0.63393955  0.15086525     0.00840
N499        N  0.23040074  0.87296838  0.14671789    -0.26040
N500        N  0.13717460  0.72665923  0.20700162    -0.26530
N501        N  0.28783515  0.87566039  0.14762943     0.00480
H502        H  0.16987316  0.89205632  0.11511975     0.06370
H503        H  0.40998939  0.84953450  0.11921455     0.06400
N504        N  0.28976287  0.63540261  0.14957464    -0.26580
N505        N  0.38347687  0.78835813  0.20538440    -0.26190
N506        N  0.13928832  0.78206482  0.14939808     0.00840
C507        C  0.25970437  0.56144082  0.23363927     0.42240
C508        C  0.20702863  0.92382112  0.22113624    -0.07440
N509        N  0.37978217  0.78595817  0.14808602    -0.26190
H510        H  0.43718504  0.85549759  0.22251310     0.06390
N511        N  0.21294992  0.59009232  0.22351759    -0.47410
H512        H  0.16143517  0.93579601  0.22321956     0.06380
C513        C  0.26817814  0.90324584  0.10809777     0.42080
C514        C  0.09475043  0.70555775  0.22256761    -0.06940
Co515      Co  0.18234204  0.83184202  0.17723345     0.73820
N516        N  0.30553963  0.92471823  0.22173478    -0.47130
C517        C  0.25300243  0.59185960  0.11423589     0.42340
N518        N  0.11287986  0.80287751  0.12825027    -0.47120
Co519      Co  0.33489153  0.83430965  0.17717948     0.73890
C520        C  0.40480056  0.80423682  0.12540881    -0.07450
C521        C  0.31154352  0.58902470  0.22190937    -0.07010
N522        N  0.13986289  0.72406138  0.15029891    -0.26540
N523        N  0.42769519  0.70984642  0.22162696    -0.47300
H524        H  0.35139825  0.60426656  0.11992514     0.06350
C525        C  0.21383536  0.89130366  0.12254858    -0.07420
Cl526      Cl  0.26000279  0.75644001  0.17864336    -0.50430
C527        C  0.25810822  0.95142970  0.23296975     0.42110
H528        H  0.10359192  0.65756946  0.12530724     0.06320
N529        N  0.31160967  0.89385140  0.12516086    -0.47140
C530        C  0.49249814  0.69485715  0.73335760     0.41960
N531        N  0.02003355  0.62606474  0.70638140     0.00850
C532        C  0.35473075  0.94151774  0.62816425    -0.07030
H533        H  0.32363599  0.90043090  0.72604637     0.06340
C534        C  0.05059487  0.83375251  0.72307365    -0.07380
Co535      Co  0.41953896  0.57408414  0.67613157     0.74180
N536        N  0.37428648  0.96767663  0.70649207    -0.26560
Co537      Co  0.42417008  0.92045841  0.67919011     0.74070
C538        C  0.49874759  0.80463183  0.73394350     0.42060
N539        N  0.12156758  0.97461498  0.70769532     0.00460
N540        N  0.47230402  0.87452964  0.70756365     0.00570
N541        N  0.36211964  0.53987968  0.62370482    -0.47410
H542        H  0.39563276  0.68045879  0.72309373     0.06320
N543        N  0.36962974  0.52595655  0.70511362     0.00850
N544        N  0.47242284  0.87759863  0.65037580     0.00590
C545        C  0.99305830  0.84798164  0.61118823     0.42200
N546        N  0.11815629  0.53303019  0.70794078    -0.26020
C547        C  0.45664138  0.63943353  0.62282560    -0.06940
N548        N  0.03952972  0.66726909  0.72257584    -0.47120
N549        N  0.44936624  0.85631460  0.62856067    -0.47350
C550        C  0.01253981  0.65577739  0.61032334     0.41970
N551        N  0.38110255  0.52225852  0.64707052     0.00840
N552        N  0.11991252  0.53263043  0.65124250    -0.26040
N553        N  0.46234099  0.62565969  0.70491466    -0.26530
N554        N  0.12036288  0.97469972  0.65091463     0.00480
H555        H  0.15633105  0.59786083  0.62496034     0.06370
H556        H  0.09027444  0.86559506  0.61677442     0.06400
N557        N  0.37956054  0.96451516  0.64959442    -0.26580
N558        N  0.03000860  0.87600349  0.70695853    -0.26190
N559        N  0.02742069  0.62006519  0.64906999     0.00840
C560        C  0.30069525  0.49838926  0.73220545     0.42240
C561        C  0.15998197  0.55432934  0.72356944    -0.07440
N562        N  0.02960412  0.88297339  0.64884094    -0.26190
H563        H  0.09604399  0.82146108  0.72502306     0.06390
N564        N  0.32532551  0.54586147  0.71991286    -0.47410
H565        H  0.17162374  0.60035041  0.72520789     0.06380
C566        C  0.16755123  0.49888130  0.61577807     0.42080
C567        C  0.44106689  0.66770205  0.72125311    -0.06940
Co568      Co  0.07144680  0.57869752  0.67922806     0.73820
N569        N  0.16558195  0.95473463  0.72211019    -0.47130
C570        C  0.34557789  0.49113451  0.61036504     0.42340
N571        N  0.05375964  0.64208412  0.62794483    -0.47120
Co572      Co  0.07602826  0.92602429  0.67886571     0.73890
C573        C  0.04662243  0.86454768  0.62467859    -0.07450
C574        C  0.33334272  0.94662786  0.72308367    -0.07010
N575        N  0.47030314  0.61708191  0.64672808    -0.26540
N576        N  0.45207185  0.83165959  0.72290117    -0.47300
H577        H  0.34894134  0.89502802  0.62452020     0.06350
C578        C  0.15017869  0.55210118  0.63021963    -0.07420
Cl579      Cl  0.99762790  0.49998834  0.67949137    -0.50430
C580        C  0.19140682  0.00232119  0.73317119     0.42110
H581        H  0.41340179  0.64212759  0.61485659     0.06320
N582        N  0.14808349  0.95299998  0.63015108    -0.47140
C583        C  0.20295944  0.00603428  0.26854860     0.41960
N584        N  0.13341398  0.53338727  0.29548043     0.00850
C585        C  0.45898947  0.86917159  0.37664929    -0.07030
H586        H  0.41037494  0.82820588  0.27749080     0.06340
C587        C  0.34166662  0.55863139  0.27869837    -0.07380
Co588      Co  0.08143771  0.92778706  0.32254707     0.74180
N589        N  0.47633860  0.88233241  0.29496685    -0.26560
Co590      Co  0.42930797  0.93191739  0.32277694     0.74070
C591        C  0.31255977  0.50648502  0.26822201     0.42060
N592        N  0.48121488  0.63228688  0.29396136     0.00460
N593        N  0.38282124  0.97936038  0.29376345     0.00570
N594        N  0.05648764  0.86307827  0.37316134    -0.47410
H595        H  0.18456538  0.90794939  0.27680546     0.06320
N596        N  0.03407933  0.88107593  0.29397712     0.00850
N597        N  0.38459117  0.98073690  0.35082299     0.00590
C598        C  0.34183423  0.50488603  0.38732556     0.42200
N599        N  0.03890586  0.63164364  0.29556897    -0.26020
C600        C  0.14700024  0.95177469  0.37459465    -0.06940
N601        N  0.17655151  0.55363688  0.28012457    -0.47120
N602        N  0.35877313  0.95909504  0.37205320    -0.47350
C603        C  0.15393305  0.50274305  0.39171488     0.41970
N604        N  0.03344162  0.88502356  0.35143233     0.00840
N605        N  0.03277299  0.62534523  0.35319011    -0.26040
N606        N  0.13097233  0.97498994  0.29509636    -0.26530
N607        N  0.47556085  0.62828016  0.35143112     0.00480
H608        H  0.09128347  0.65179469  0.38394187     0.06370
H609        H  0.35308369  0.60405523  0.37733549     0.06400
N610        N  0.47612727  0.88925527  0.35277338    -0.26580
N611        N  0.38442973  0.53781066  0.29392822    -0.26190
N612        N  0.12246173  0.53114286  0.35375621     0.00840
C613        C  0.50736152  0.81196266  0.26743737     0.42240
C614        C  0.06020667  0.67427365  0.27988244    -0.07440
N615        N  0.38547420  0.53865256  0.35073803    -0.26190
H616        H  0.32872053  0.60452800  0.27733028     0.06390
N617        N  0.05438368  0.83874791  0.27811204    -0.47410
H618        H  0.10551523  0.68718679  0.27872767     0.06380
C619        C  0.99275244  0.66708099  0.38928682     0.42080
C620        C  0.17303340  0.95406246  0.27902683    -0.06940
Co621      Co  0.08302345  0.58137635  0.32422305     0.73820
N622        N  0.46178130  0.67427593  0.27781338    -0.47130
C623        C  0.01267496  0.85182892  0.39010255     0.42340
N624        N  0.13899603  0.55043979  0.37719050    -0.47120
Co625      Co  0.43124731  0.58500387  0.32198164     0.73890
C626        C  0.35819088  0.55816076  0.37258753    -0.07450
C627        C  0.45577214  0.84033139  0.27909157    -0.07010
N628        N  0.12436722  0.97318121  0.35220073    -0.26540
N629        N  0.33990881  0.95888715  0.27887309    -0.47300
H630        H  0.41492923  0.86914176  0.38431298     0.06350
C631        C  0.04768246  0.64917636  0.37645371    -0.07420
Cl632      Cl  0.00630633  0.50662672  0.32211383    -0.50430
C633        C  0.50920535  0.70195310  0.26753920     0.42110
H634        H  0.15272852  0.90569863  0.37938368     0.06320
N635        N  0.45033905  0.65208902  0.37251593    -0.47140
C636        C  0.00860557  0.74025452  0.51404103     0.00060
C637        C  0.99914736  0.74243765  0.48744623     0.00060
C638        C  0.25302995  0.98083465  0.51376278     0.00060
C639        C  0.24546993  0.97387535  0.48745112     0.00060
C640        C  0.00852148  0.75715213  0.24990956    -0.02990
C641        C  0.96590177  0.69660203  0.47225793    -0.06630
C642        C  0.92547039  0.72071299  0.45438312    -0.17750
C643        C  0.43455665  0.71409488  0.42701213     0.10570
C644        C  0.98143892  0.67797087  0.41778290    -0.06550
C645        C  0.01173664  0.64373909  0.43645924    -0.17790
C646        C  0.99447727  0.64548392  0.46317902     0.10600
S647        S  0.38551647  0.75383953  0.40560172    -0.32750
S648        S  0.96204233  0.57776467  0.47442142    -0.32760
H649        H  0.00017402  0.54001987  0.46029786     0.28610
H650        H  0.42307842  0.75708445  0.38364922     0.28610
H651        H  0.39477125  0.75404091  0.46116516     0.19200
H652        H  0.03909336  0.60763083  0.42956938     0.19210
C653        C  0.02031059  0.79253867  0.47060350    -0.06630
C654        C  0.06493127  0.77644231  0.45273025    -0.17750
C655        C  0.06612286  0.79809687  0.42682543     0.10570
C656        C  0.02104394  0.83640701  0.41828961    -0.06550
C657        C  0.48307551  0.86062942  0.43735896    -0.17790
C658        C  0.48342434  0.84041839  0.46353924     0.10600
S659        S  0.12406557  0.77160609  0.40554025    -0.32750
S660        S  0.43476587  0.87637864  0.48646834    -0.32760
H661        H  0.41162089  0.82363380  0.49622815     0.28610
H662        H  0.08831686  0.76061203  0.38381409     0.28610
H663        H  0.09504381  0.74134599  0.45801207     0.19200
H664        H  0.45156457  0.89409453  0.43168807     0.19210
C665        C  0.15693696  0.50129423  0.42108971    -0.06630
C666        C  0.14743634  0.94756273  0.43458351    -0.17750
C667        C  0.16029983  0.94220449  0.46147512     0.10570
C668        C  0.18909576  0.98818580  0.47419094    -0.06550
C669        C  0.18496605  0.54457986  0.46278235    -0.17790
C670        C  0.16930440  0.55180518  0.43634791     0.10600
S671        S  0.14448839  0.87510064  0.47878276    -0.32750
S672        S  0.17209675  0.62498247  0.42244829    -0.32760
H673        H  0.17181754  0.65584428  0.44655826     0.28610
H674        H  0.13116371  0.90469258  0.50241973     0.28610
H675        H  0.13120641  0.90938795  0.42428876     0.19200
H676        H  0.20409666  0.58171290  0.47248912     0.19210
C677        C  0.32771563  0.49609961  0.41578272    -0.06630
C678        C  0.31572657  0.93808117  0.42384450    -0.17750
C679        C  0.29928075  0.92513099  0.44971013     0.10570
C680        C  0.29559637  0.97094598  0.46861993    -0.06550
C681        C  0.31811309  0.52618923  0.46179779    -0.17790
C682        C  0.32930125  0.54051543  0.43541196     0.10600
S683        S  0.27757784  0.85044181  0.45614674    -0.32750
S684        S  0.33519201  0.61747316  0.42859346    -0.32760
H685        H  0.28980244  0.61688521  0.41024638     0.28610
H686        H  0.32392581  0.83933408  0.47311669     0.28610
H687        H  0.31596078  0.90242309  0.40960256     0.19200
H688        H  0.31536800  0.56176686  0.47606099     0.19210
C689        C  0.17966019  0.49443467  0.58715196    -0.06630
C690        C  0.17846208  0.54582149  0.57162264    -0.17750
C691        C  0.19288805  0.54383874  0.54479856     0.10570
C692        C  0.20357227  0.98848451  0.53261050    -0.06550
C693        C  0.19141371  0.93730840  0.54705219    -0.17790
C694        C  0.18771285  0.93929187  0.57453522     0.10600
S695        S  0.20057266  0.61405255  0.52833832    -0.32750
S696        S  0.20113693  0.87184916  0.59269820    -0.32760
H697        H  0.20279093  0.83301970  0.57105060     0.28610
H698        H  0.24230464  0.59649046  0.50979038     0.28610
H699        H  0.17026957  0.58846069  0.58053980     0.19200
H700        H  0.19690585  0.89507455  0.53754546     0.19210
C701        C  0.34014543  0.48716613  0.58109335    -0.06630
C702        C  0.33981519  0.93145920  0.56881332    -0.17750
C703        C  0.32357479  0.92563410  0.54235182     0.10570
C704        C  0.31077939  0.97684151  0.52728192    -0.06550
C705        C  0.32944514  0.53092880  0.53751164    -0.17790
C706        C  0.33576702  0.53746725  0.56481409     0.10600
S707        S  0.31002035  0.85182672  0.53094133    -0.32750
S708        S  0.32499091  0.60993019  0.57810485    -0.32760
H709        H  0.38323235  0.62315430  0.57274336     0.28610
H710        H  0.27309066  0.86752151  0.51035495     0.28610
H711        H  0.34644097  0.89165995  0.58021583     0.19200
H712        H  0.32541739  0.57036107  0.52570351     0.19210
C713        C  0.04378910  0.69331499  0.52816591    -0.06630
C714        C  0.58257020  0.71610574  0.54698563    -0.17750
C715        C  0.57289332  0.70519649  0.57407793     0.10570
C716        C  0.02662479  0.66751159  0.58202913    -0.06550
C717        C  0.00091040  0.63279309  0.56239529    -0.17790
C718        C  0.01757373  0.63986746  0.53576838     0.10600
S719        S  0.61916711  0.74246462  0.59710240    -0.32750
S720        S  0.04829991  0.57326674  0.52210009    -0.32760
H721        H  0.07917021  0.60128319  0.50143019     0.28610
H722        H  0.57687954  0.74927500  0.61711222     0.28610
H723        H  0.61156136  0.75168204  0.54135416     0.19200
H724        H  0.97797739  0.59319944  0.56830185     0.19210
C725        C  0.98382902  0.83557619  0.58285013    -0.06630
C726        C  0.44214277  0.79373386  0.57571854    -0.17750
C727        C  0.44089772  0.77196193  0.54989233     0.10570
C728        C  0.98559827  0.78738453  0.53191012    -0.06550
C729        C  0.02013434  0.83654682  0.53763099    -0.17790
C730        C  0.01649522  0.86315618  0.56259147     0.10600
S731        S  0.38513295  0.72026110  0.54127744    -0.32750
S732        S  0.04916040  0.93426655  0.56687507    -0.32760
H733        H  0.01112433  0.95294685  0.58726591     0.28610
H734        H  0.38967978  0.72826124  0.51386529     0.28610
H735        H  0.41239675  0.77599250  0.59044855     0.19200
H736        H  0.05178341  0.85202602  0.52327698     0.19210
C737        C  0.24389173  0.57913380  0.08624921    -0.06630
C738        C  0.20175542  0.53752376  0.07989695    -0.17750
C739        C  0.19007353  0.52482229  0.05359510     0.10570
C740        C  0.22794109  0.54644448  0.03353027    -0.06590
C741        C  0.26399036  0.59394011  0.03957815    -0.17790
C742        C  0.26931316  0.61271904  0.06567664     0.10600
S743        S  0.12909959  0.97746448  0.04733615    -0.32750
S744        S  0.30258196  0.68278260  0.07089018    -0.32760
H745        H  0.27212057  0.69737871  0.09421821     0.28610
H746        H  0.14155203  0.96594364  0.02076729     0.28610
H747        H  0.17671143  0.51611426  0.09542518     0.19200
H748        H  0.29161199  0.61325137  0.02441945     0.19210
C749        C  0.27965985  0.95215976  0.02709559    -0.06630
C750        C  0.24494419  0.90365783  0.03388448    -0.17750
C751        C  0.24463887  0.88200232  0.05987069     0.10570
C752        C  0.27824537  0.91049055  0.07928525    -0.06550
C753        C  0.32290503  0.94802317  0.07073925    -0.17790
C754        C  0.32573041  0.96652517  0.04440060     0.10600
S755        S  0.20189348  0.81784646  0.06671342    -0.32750
S756        S  0.38375758  0.01559536  0.03477986    -0.32760
H757        H  0.37218483  0.01262964  0.00765705     0.28610
H758        H  0.23502743  0.79877503  0.08834534     0.28610
H759        H  0.21317549  0.88746503  0.02009146     0.19200
H760        H  0.35343403  0.96580383  0.08480445     0.19210
C761        C  0.26295827  0.55647904  0.97180624    -0.06630
C762        C  0.30949060  0.53694298  0.95566756    -0.17750
C763        C  0.30540798  0.54054430  0.92816995     0.10570
C764        C  0.26022465  0.57497843  0.91682195    -0.06550
C765        C  0.22262000  0.60703483  0.93376272    -0.17790
C766        C  0.22511744  0.59922312  0.96123216     0.10600
S767        S  0.35840245  0.49833977  0.90924370    -0.32750
S768        S  0.17763340  0.64170187  0.98229999    -0.32760
H769        H  0.22330778  0.66136293  0.99819085     0.28610
H770        H  0.32410705  0.49130526  0.88672111     0.28610
H771        H  0.34139939  0.50662745  0.96376586     0.19200
H772        H  0.19156988  0.63826765  0.92567437     0.19210
C773        C  0.21826021  0.95834692  0.97128116    -0.06630
C774        C  0.25927207  0.91442532  0.96440125    -0.17750
C775        C  0.26057116  0.89072019  0.93884238     0.10570
C776        C  0.22345440  0.91418741  0.91934803    -0.06550
C777        C  0.17656971  0.94989073  0.92754788    -0.17790
C778        C  0.17222078  0.96994447  0.95350990     0.10600
S779        S  0.30824858  0.82943996  0.93270436    -0.32750
S780        S  0.10808254  0.01256894  0.96226535    -0.32760
H781        H  0.12392518  0.52687864  0.98804148     0.28610
H782        H  0.27188640  0.80205040  0.91422431     0.28610
H783        H  0.29371319  0.90271155  0.97790097     0.19200
H784        H  0.14413887  0.96434230  0.91349036     0.19210
C785        C  0.04387389  0.77836387  0.03311388    -0.06630
C786        C  0.07448310  0.72764678  0.04025663    -0.17750
C787        C  0.09052031  0.71849068  0.06639184     0.10570
C788        C  0.07889942  0.76205279  0.08585626    -0.06550
C789        C  0.05563474  0.81635915  0.07756811    -0.17790
C790        C  0.03924324  0.82521874  0.05140295     0.10600
S791        S  0.12355578  0.64932995  0.07307159    -0.32750
S792        S  0.00695903  0.89510742  0.04297643    -0.32760
H793        H  0.03167022  0.89487541  0.01753228     0.28610
H794        H  0.17035644  0.67666109  0.08570833     0.28610
H795        H  0.07871477  0.69161156  0.02627266     0.19200
H796        H  0.04879117  0.85179411  0.09164458     0.19210
C797        C  0.44125323  0.74897111  0.02610917    -0.06630
C798        C  0.44754909  0.69561179  0.04005868    -0.17750
C799        C  0.44220669  0.69522330  0.06773022     0.10570
C800        C  0.42171968  0.74672363  0.08093726    -0.06550
C801        C  0.39949738  0.79331072  0.06534853    -0.17790
C802        C  0.40592170  0.79209355  0.03777962     0.10600
S803        S  0.46574837  0.62946990  0.08473501    -0.32750
S804        S  0.37557193  0.84919519  0.01779456    -0.32760
H805        H  0.36355385  0.81159536  0.99651302     0.28610
H806        H  0.49517711  0.65995283  0.10470342     0.28610
H807        H  0.46979470  0.65889563  0.03052327     0.19200
H808        H  0.37709318  0.83030094  0.07444415     0.19210
C809        C  0.06143649  0.75137871  0.97491474    -0.06630
C810        C  0.05597723  0.69629143  0.96263481    -0.17750
C811        C  0.06548778  0.69078960  0.93539405     0.10570
C812        C  0.08843157  0.73917486  0.92087334    -0.06550
C813        C  0.10817287  0.78841883  0.93515213    -0.17790
C814        C  0.09686240  0.79305559  0.96238218     0.10600
S815        S  0.03668619  0.62571142  0.92019759    -0.32750
S816        S  0.12292008  0.85466026  0.98059641    -0.32760
H817        H  0.13045512  0.82271460  0.00410542     0.28610
H818        H  0.09128098  0.59709259  0.92037997     0.28610
H819        H  0.03202011  0.66181140  0.97280930     0.19200
H820        H  0.13077057  0.82387514  0.92510585     0.19210
C821        C  0.45866534  0.78019006  0.96804379    -0.06630
C822        C  0.42961476  0.72903153  0.96044929    -0.17750
C823        C  0.41439186  0.72040504  0.93412887     0.10570
C824        C  0.42698737  0.76374160  0.91486971    -0.06550
C825        C  0.45029641  0.81754382  0.92334923    -0.17790
C826        C  0.46306283  0.82709219  0.94980413     0.10600
S827        S  0.38069776  0.65260764  0.92648696    -0.32750
S828        S  0.48778705  0.89924394  0.95894342    -0.32760
H829        H  0.46545916  0.89522595  0.98471236     0.28610
H830        H  0.33154620  0.68133069  0.91589442     0.28610
H831        H  0.42521581  0.69279496  0.97432224     0.19200
H832        H  0.45818514  0.85298791  0.90943652     0.19210
C833        C  0.75817684  0.50612529  0.25091426    -0.02990
C834        C  0.49661175  0.27040635  0.01376694     0.00060
C835        C  0.50611653  0.27291309  0.98745221     0.00060
C836        C  0.74614734  0.99993932  0.75012270    -0.02990
C837        C  0.49561438  0.24938919  0.75115552    -0.02990
C838        C  0.73719098  0.00826335  0.98818976     0.00060
C839        C  0.75073462  0.00339364  0.01402441     0.00060
C840        C  0.72976990  0.40141542  0.89075087     0.41960
N841        N  0.76290473  0.36829413  0.85356764     0.00850
C842        C  0.58010251  0.19261413  0.77908819    -0.07030
H843        H  0.61024831  0.14290787  0.87991498     0.06340
C844        C  0.80644208  0.10398560  0.87195836    -0.07380
Co845      Co  0.66338894  0.32124611  0.82315767     0.74180
N846        N  0.62835338  0.21170938  0.85241195    -0.26560
Co847      Co  0.67391403  0.16783961  0.82332099     0.74070
C848        C  0.75724021  0.08528109  0.88802757     0.42060
N849        N  0.86661787  0.22798673  0.85186378     0.00460
N850        N  0.72578378  0.12651171  0.85240407     0.00570
N851        N  0.57615710  0.29217412  0.77994011    -0.47410
H852        H  0.63525832  0.39288688  0.87787021     0.06320
N853        N  0.62393853  0.26957105  0.85320781     0.00850
N854        N  0.72311927  0.12327779  0.79466581     0.00590
C855        C  0.74936557  0.05469921  0.76755086     0.42200
N856        N  0.86196833  0.28583045  0.85108250    -0.26020
C857        C  0.68939064  0.41504255  0.77811827    -0.06940
N858        N  0.77936848  0.38731504  0.87718098    -0.47120
N859        N  0.70289444  0.08064847  0.77946402    -0.47350
C860        C  0.74209147  0.44466291  0.76767035     0.41970
N861        N  0.61875782  0.27159835  0.79502955     0.00840
N862        N  0.86733861  0.28550324  0.79461860    -0.26040
N863        N  0.70567395  0.36740135  0.85175066    -0.26530
N864        N  0.87015089  0.22705755  0.79424136     0.00480
H865        H  0.92225931  0.35205051  0.77692132     0.06370
H866        H  0.84690672  0.07297314  0.77489648     0.06400
N867        N  0.62171646  0.21316231  0.79524873    -0.26580
N868        N  0.78299140  0.13007131  0.85098823    -0.26190
N869        N  0.76658398  0.37600162  0.79509844     0.00840
C870        C  0.59324589  0.23929935  0.89149981     0.42240
C871        C  0.88896924  0.30928435  0.87161768    -0.07440
N872        N  0.78087558  0.12621423  0.79431434    -0.26190
H873        H  0.85246717  0.10242457  0.87620169     0.06390
N874        N  0.60398001  0.28785172  0.87656775    -0.47410
H875        H  0.89025990  0.35584394  0.87615527     0.06380
C876        C  0.94067389  0.25337545  0.76846322     0.42080
C877        C  0.68144235  0.39049858  0.87348678    -0.06940
Co878      Co  0.81509551  0.32985190  0.82325598     0.73820
N879        N  0.89428211  0.20989592  0.87339432    -0.47130
C880        C  0.55001754  0.24533617  0.76863454     0.42340
N881        N  0.78775765  0.41840017  0.77968391    -0.47120
Co882      Co  0.82577570  0.17718165  0.82246363     0.73890
C883        C  0.80138382  0.08457702  0.77766825    -0.07450
C884        C  0.60824729  0.18896051  0.87501276    -0.07010
N885        N  0.70885319  0.37320405  0.79482456    -0.26540
N886        N  0.70846687  0.10098208  0.87476273    -0.47300
H887        H  0.56884865  0.14665289  0.77675316     0.06350
C888        C  0.91017591  0.30616551  0.77880982    -0.07420
Cl889      Cl  0.74454149  0.24899364  0.82193107    -0.50430
C890        C  0.90941929  0.25925519  0.88682259     0.42110
H891        H  0.64402888  0.42680723  0.77537406     0.06320
N892        N  0.91360421  0.20644955  0.77934685    -0.47140
C893        C  0.56381840  0.25737843  0.23266121     0.41960
N894        N  0.63430959  0.28506481  0.20670789     0.00850
C895        C  0.80704279  0.10865548  0.12712368    -0.07030
H896        H  0.85668516  0.07496100  0.22284086     0.06340
C897        C  0.92524656  0.30953513  0.22101632    -0.07380
Co898      Co  0.68540691  0.17879589  0.17945142     0.74180
N899        N  0.79129119  0.13265269  0.20663558    -0.26560
Co900      Co  0.83739630  0.18073680  0.17794211     0.74070
C901        C  0.95424458  0.25763033  0.23228185     0.42060
N902        N  0.78596446  0.38321551  0.20550807     0.00460
N903        N  0.88540320  0.22991203  0.20605123     0.00570
N904        N  0.70877308  0.10849239  0.13017216    -0.47410
H905        H  0.58319120  0.15949716  0.22430564     0.06320
N906        N  0.73351621  0.13252569  0.20789732     0.00850
N907        N  0.87939600  0.22784540  0.14808374     0.00590
C908        C  0.91669140  0.25069882  0.11019655     0.42200
N909        N  0.72822218  0.38222704  0.20478933    -0.26020
C910        C  0.61081142  0.20363697  0.12940977    -0.06940
N911        N  0.59012884  0.30522091  0.22154940    -0.47120
N912        N  0.90010019  0.20528472  0.12573444    -0.47350
C913        C  0.59491800  0.25621964  0.11410298     0.41970
N914        N  0.73230650  0.13393937  0.15086535     0.00840
N915        N  0.73040045  0.37296808  0.14671796    -0.26040
N916        N  0.63717453  0.22665906  0.20700179    -0.26530
N917        N  0.78783488  0.37566006  0.14762943     0.00480
H918        H  0.66987267  0.39205594  0.11511990     0.06370
H919        H  0.90998911  0.34953416  0.11921453     0.06400
N920        N  0.78976269  0.13540242  0.14957474    -0.26580
N921        N  0.88347680  0.28835799  0.20538444    -0.26190
N922        N  0.63928803  0.28206454  0.14939825     0.00840
C923        C  0.75970434  0.06144070  0.23363939     0.42240
C924        C  0.70702860  0.42382112  0.22113624    -0.07440
N925        N  0.87978199  0.28595792  0.14808605    -0.26190
H926        H  0.93718493  0.35549747  0.22251317     0.06390
N927        N  0.71294988  0.09009218  0.22351772    -0.47410
H928        H  0.66143515  0.43579603  0.22321956     0.06380
C929        C  0.76817761  0.40324535  0.10809776     0.42080
C930        C  0.59475033  0.20555759  0.22256777    -0.06940
Co931      Co  0.68234187  0.33184181  0.17723356     0.73820
N932        N  0.80553960  0.42471825  0.22173472    -0.47130
C933        C  0.75300222  0.09185958  0.11423594     0.42340
N934        N  0.61287935  0.30287716  0.12825048    -0.47120
Co935      Co  0.83489139  0.33430946  0.17717950     0.73890
C936        C  0.90480033  0.30423649  0.12540882    -0.07450
C937        C  0.81154347  0.08902457  0.22190947    -0.07010
N938        N  0.63986261  0.22406110  0.15029910    -0.26540
N939        N  0.92769506  0.20984630  0.22162707    -0.47300
H940        H  0.85139803  0.10426649  0.11992520     0.06350
C941        C  0.71383493  0.39130329  0.12254866    -0.07420
Cl942      Cl  0.76000265  0.25643982  0.17864346    -0.50430
C943        C  0.75810822  0.45142979  0.23296969     0.42110
H944        H  0.60359136  0.15756909  0.12530757     0.06320
N945        N  0.81160926  0.39385094  0.12516081    -0.47140
C946        C  0.99249828  0.19485705  0.73335760     0.41960
N947        N  0.52003368  0.12606482  0.70638130     0.00850
C948        C  0.85473046  0.44151764  0.62816444    -0.07030
H949        H  0.82363584  0.40043076  0.72604652     0.06340
C950        C  0.55059494  0.33375243  0.72307373    -0.07380
Co951      Co  0.91953915  0.07408429  0.67613141     0.74180
N952        N  0.87428639  0.46767649  0.70649225    -0.26560
Co953      Co  0.92416996  0.42045828  0.67919027     0.74070
C954        C  0.99874772  0.30463171  0.73394360     0.42060
N955        N  0.62156754  0.47461491  0.70769537     0.00460
N956        N  0.97230403  0.37452955  0.70756379     0.00570
N957        N  0.86212007  0.03987978  0.62370460    -0.47410
H958        H  0.89563290  0.18045882  0.72309368     0.06320
N959        N  0.86962984  0.02595669  0.70511345     0.00850
N960        N  0.97242265  0.37759849  0.65037595     0.00590
C961        C  0.49305804  0.34798132  0.61118841     0.42200
N962        N  0.61815633  0.03303026  0.70794071    -0.26020
C963        C  0.95664181  0.13943360  0.62282543    -0.06940
N964        N  0.53952985  0.16726903  0.72257581    -0.47120
N965        N  0.94936602  0.35631440  0.62856085    -0.47350
C966        C  0.51254029  0.15577734  0.61032317     0.41970
N967        N  0.88110283  0.02225867  0.64707032     0.00840
N968        N  0.61991278  0.03263050  0.65124247    -0.26040
N969        N  0.96234114  0.12565981  0.70491454    -0.26530
N970        N  0.62036262  0.47469964  0.65091465     0.00480
H971        H  0.65633159  0.09786087  0.62496038     0.06370
H972        H  0.59027418  0.36559477  0.61677455     0.06400
N973        N  0.87956034  0.46451502  0.64959460    -0.26580
N974        N  0.53000860  0.37600342  0.70695863    -0.26190
N975        N  0.52742099  0.12006525  0.64906987     0.00840
C976        C  0.80069538  0.99838938  0.73220529     0.42240
C977        C  0.65998207  0.05432943  0.72356934    -0.07440
N978        N  0.52960392  0.38297323  0.64884107    -0.26190
H979        H  0.59604407  0.32146100  0.72502311     0.06390
N980        N  0.82532562  0.04586160  0.71991270    -0.47410
H981        H  0.67162388  0.10035049  0.72520776     0.06380
C982        C  0.66755181  0.99888133  0.61577814     0.42080
C983        C  0.94106703  0.16770208  0.72125304    -0.06940
Co984      Co  0.57144697  0.07869760  0.67922798     0.73820
N985        N  0.66558184  0.45473455  0.72211029    -0.47130
C986        C  0.84557833  0.99113458  0.61036482     0.42340
N987        N  0.55376004  0.14208409  0.62794470    -0.47120
Co988      Co  0.57602815  0.42602421  0.67886579     0.73890
C989        C  0.54662219  0.36454741  0.62467874    -0.07450
C990        C  0.83334260  0.44662772  0.72308384    -0.07010
N991        N  0.97030345  0.11708203  0.64672794    -0.26540
N992        N  0.95207193  0.33165946  0.72290130    -0.47300
H993        H  0.84894109  0.39502792  0.62452036     0.06350
C994        C  0.65017915  0.05210122  0.63021966    -0.07420
Cl995      Cl  0.49762804  0.99998846  0.67949124    -0.50430
C996        C  0.69140667  0.50232110  0.73317132     0.42110
H997        H  0.91340225  0.14212768  0.61485638     0.06320
N998        N  0.64808304  0.45299992  0.63015104    -0.47140
C999        C  0.70295945  0.50603444  0.26854850     0.41960
N1000       N  0.63341399  0.03338710  0.29548054     0.00850
C1001       C  0.95898956  0.36917200  0.37664931    -0.07030
H1002       H  0.91037481  0.32820588  0.27749092     0.06340
C1003       C  0.84166662  0.05863120  0.27869845    -0.07380
Co1004     Co  0.58143770  0.42778729  0.32254699     0.74180
N1005       N  0.97633849  0.38233257  0.29496687    -0.26560
Co1006     Co  0.92930793  0.43191769  0.32277695     0.74070
C1007       C  0.81255977  0.00648486  0.26822208     0.42060
N1008       N  0.98121482  0.13228672  0.29396148     0.00460
N1009       N  0.88282116  0.47936062  0.29376344     0.00570
N1010       N  0.55648773  0.36307862  0.37316130    -0.47410
H1011       H  0.68456538  0.40794956  0.27680539     0.06320
N1012       N  0.53407923  0.38107611  0.29397710     0.00850
N1013       N  0.88459120  0.48073733  0.35082301     0.00590
C1014       C  0.84183397  0.00488552  0.38732550     0.42200
N1015       N  0.53890581  0.13164351  0.29556911    -0.26020
C1016       C  0.64700042  0.45177493  0.37459449    -0.06940
N1017       N  0.67655151  0.05363672  0.28012468    -0.47120
N1018       N  0.85877326  0.45909555  0.37205325    -0.47350
C1019       C  0.65393291  0.00274281  0.39171501     0.41970
N1020       N  0.53344165  0.38502388  0.35143230     0.00840
N1021       N  0.53277285  0.12534487  0.35319027    -0.26040
N1022       N  0.63097230  0.47499012  0.29509625    -0.26530
N1023       N  0.97556073  0.12827978  0.35143126     0.00480
H1024       H  0.59128324  0.15179426  0.38394209     0.06370
H1025       H  0.85308318  0.10405476  0.37733544     0.06400
N1026       N  0.97612730  0.38925564  0.35277339    -0.26580
N1027       N  0.88442978  0.03781043  0.29392827    -0.26190
N1028       N  0.62246167  0.03114259  0.35375632     0.00840
C1029       C  0.00736137  0.31196264  0.26743746     0.42240
C1030       C  0.56020658  0.17427359  0.27988260    -0.07440
N1031       N  0.88547410  0.03865216  0.35073805    -0.26190
H1032       H  0.82872049  0.10452780  0.27733040     0.06390
N1033       N  0.55438355  0.33874798  0.27811206    -0.47410
H1034       H  0.60551513  0.18718676  0.27872784     0.06380
C1035       C  0.49275220  0.16708048  0.38928699     0.42080
C1036       C  0.67303338  0.45406262  0.27902674    -0.06940
Co1037     Co  0.58302339  0.08137612  0.32422318     0.73820
N1038       N  0.96178122  0.17427578  0.27781352    -0.47130
C1039       C  0.51267509  0.35182935  0.39010254     0.42340
N1040       N  0.63899595  0.05043954  0.37719061    -0.47120
Co1041     Co  0.93124727  0.08500359  0.32198172     0.73890
C1042       C  0.85819059  0.05816030  0.37258751    -0.07450
C1043       C  0.95577200  0.34033143  0.27909165    -0.07010
N1044       N  0.62436731  0.47318147  0.35220061    -0.26540
N1045       N  0.83990876  0.45888736  0.27887307    -0.47300
H1046       H  0.91492934  0.36914221  0.38431304     0.06350
C1047       C  0.54768226  0.14917591  0.37645390    -0.07420
Cl1048     Cl  0.50630632  0.00662646  0.32211390    -0.50430
C1049       C  0.00920524  0.20195304  0.26753936     0.42110
H1050       H  0.65272874  0.40569886  0.37938349     0.06320
N1051       N  0.95033887  0.15208855  0.37251609    -0.47140
C1052       C  0.50860584  0.24025530  0.51404105     0.00060
C1053       C  0.49914741  0.24243852  0.48744627     0.00060
C1054       C  0.75302960  0.48083482  0.51376282     0.00060
C1055       C  0.74547000  0.47387567  0.48745113     0.00060
C1056       C  0.50852134  0.25715203  0.24990969    -0.02990
C1057       C  0.46590151  0.19660311  0.47225799    -0.06630
C1058       C  0.42547046  0.22071420  0.45438306    -0.17750
C1059       C  0.93455673  0.21409533  0.42701214     0.10570
C1060       C  0.48143864  0.17797082  0.41778303    -0.06550
C1061       C  0.51173591  0.14373900  0.43645951    -0.17790
C1062       C  0.49447653  0.14548455  0.46317929     0.10600
S1063       S  0.88551678  0.25383981  0.40560158    -0.32750
S1064       S  0.46204118  0.07776587  0.47442215    -0.32760
H1065       H  0.50017187  0.04002037  0.46029842     0.28610
H1066       H  0.92307897  0.25708448  0.38364915     0.28610
H1067       H  0.89477168  0.25404235  0.46116502     0.19200
H1068       H  0.53909234  0.10763038  0.42956980     0.19210
C1069       C  0.52031094  0.29253935  0.47060351    -0.06630
C1070       C  0.56493135  0.27644259  0.45273019    -0.17750
C1071       C  0.56612287  0.29809704  0.42682535     0.10570
C1072       C  0.52104416  0.33640749  0.41828960    -0.06550
C1073       C  0.98307605  0.36063013  0.43735899    -0.17790
C1074       C  0.98342501  0.34041919  0.46353928     0.10600
S1075       S  0.62406514  0.27160570  0.40554008    -0.32750
S1076       S  0.93476694  0.37637982  0.48646845    -0.32760
H1077       H  0.91162164  0.32363515  0.49622829     0.28610
H1078       H  0.58831613  0.26061195  0.38381398     0.28610
H1079       H  0.59504366  0.24134604  0.45801199     0.19200
H1080       H  0.95156529  0.39409542  0.43168812     0.19210
C1081       C  0.65693680  0.00129408  0.42108984    -0.06630
C1082       C  0.64743689  0.44756265  0.43458331    -0.17750
C1083       C  0.66030039  0.44220433  0.46147491     0.10570
C1084       C  0.68909591  0.48818579  0.47419082    -0.06550
C1085       C  0.68496614  0.04457974  0.46278243    -0.17790
C1086       C  0.66930449  0.05180503  0.43634799     0.10600
S1087       S  0.64448944  0.37510023  0.47878246    -0.32750
S1088       S  0.67209717  0.12498225  0.42244830    -0.32760
H1089       H  0.67181801  0.15584415  0.44655825     0.28610
H1090       H  0.63116388  0.40469199  0.50241938     0.28610
H1091       H  0.63120724  0.40938780  0.42428852     0.19200
H1092       H  0.70409696  0.08171273  0.47248917     0.19210
C1093       C  0.82771534  0.99609905  0.41578264    -0.06630
C1094       C  0.81572752  0.43808171  0.42384468    -0.17750
C1095       C  0.79928163  0.42513156  0.44971030     0.10570
C1096       C  0.79559669  0.47094663  0.46862004    -0.06550
C1097       C  0.81811322  0.02618848  0.46179774    -0.17790
C1098       C  0.82930152  0.04051471  0.43541193     0.10600
S1099       S  0.77757934  0.35044221  0.45614693    -0.32750
S1100       S  0.83519350  0.11747238  0.42859354    -0.32760
H1101       H  0.78980323  0.11688548  0.41024681     0.28610
H1102       H  0.82392664  0.33933534  0.47311734     0.28610
H1103       H  0.81596221  0.40242351  0.40960279     0.19200
H1104       H  0.81536849  0.06176605  0.47606098     0.19210
C1105       C  0.67966089  0.99443467  0.58715204    -0.06630
C1106       C  0.67846294  0.04582149  0.57162273    -0.17750
C1107       C  0.69288887  0.04383872  0.54479865     0.10570
C1108       C  0.70357162  0.48848456  0.53261041    -0.06550
C1109       C  0.69141301  0.43730844  0.54705207    -0.17790
C1110       C  0.68771216  0.43929188  0.57453511     0.10600
S1111       S  0.70057368  0.11405253  0.52833842    -0.32750
S1112       S  0.70113640  0.37184920  0.59269808    -0.32760
H1113       H  0.70279055  0.33301977  0.57105047     0.28610
H1114       H  0.74230529  0.09649025  0.50979034     0.28610
H1115       H  0.67027055  0.08846072  0.58053989     0.19200
H1116       H  0.69690523  0.39507459  0.53754535     0.19210
C1117       C  0.84014604  0.98716607  0.58109313    -0.06630
C1118       C  0.83981465  0.43145936  0.56881351    -0.17750
C1119       C  0.82357426  0.42563435  0.54235200     0.10570
C1120       C  0.81077884  0.47684180  0.52728213    -0.06550
C1121       C  0.82944591  0.03092850  0.53751137    -0.17790
C1122       C  0.83576782  0.03746710  0.56481381     0.10600
S1123       S  0.81002009  0.35182696  0.53094144    -0.32750
S1124       S  0.82499196  0.10993013  0.57810449    -0.32760
H1125       H  0.88323346  0.12315399  0.57274302     0.28610
H1126       H  0.77309003  0.36752166  0.51035518     0.28610
H1127       H  0.84644056  0.39166007  0.58021598     0.19200
H1128       H  0.82541828  0.07036072  0.52570319     0.19210
C1129       C  0.54378970  0.19331588  0.52816584    -0.06630
C1130       C  0.08257069  0.21610659  0.54698566    -0.17750
C1131       C  0.07289380  0.20519697  0.57407793     0.10570
C1132       C  0.52662538  0.16751179  0.58202899    -0.06550
C1133       C  0.50091132  0.13279329  0.56239505    -0.17790
C1134       C  0.51757474  0.13986805  0.53576817     0.10600
S1135       S  0.11916746  0.24246489  0.59710251    -0.32750
S1136       S  0.54830158  0.07326776  0.52209975    -0.32760
H1137       H  0.57917119  0.10128468  0.50142976     0.28610
H1138       H  0.07687982  0.24927503  0.61711231     0.28610
H1139       H  0.11156168  0.25168310  0.54135427     0.19200
H1140       H  0.47797857  0.09319942  0.56830151     0.19210
C1141       C  0.48382873  0.33557613  0.58285030    -0.06630
C1142       C  0.94214273  0.29373370  0.57571861    -0.17750
C1143       C  0.94089784  0.27196205  0.54989234     0.10570
C1144       C  0.48559828  0.28738504  0.53191020    -0.06550
C1145       C  0.52013412  0.33654743  0.53763118    -0.17790
C1146       C  0.51649480  0.36315653  0.56259171     0.10600
S1147       S  0.88513325  0.22026120  0.54127726    -0.32750
S1148       S  0.54915955  0.43426705  0.56687546    -0.32760
H1149       H  0.51112332  0.45294692  0.58726632     0.28610
H1150       H  0.88967970  0.22826239  0.51386516     0.28610
H1151       H  0.91239676  0.27599208  0.59044857     0.19200
H1152       H  0.55178315  0.35202692  0.52327721     0.19210
C1153       C  0.74389160  0.07913399  0.08624923    -0.06630
C1154       C  0.70175558  0.03752375  0.07989685    -0.17750
C1155       C  0.69007399  0.02482233  0.05359496     0.10570
C1156       C  0.72794163  0.04644478  0.03353022    -0.06590
C1157       C  0.76399052  0.09394063  0.03957820    -0.17790
C1158       C  0.76931294  0.11271952  0.06567672     0.10600
S1159       S  0.62909873  0.47746471  0.04733648    -0.32750
S1160       S  0.80258108  0.18278336  0.07089039    -0.32760
H1161       H  0.77211977  0.19737890  0.09421851     0.28610
H1162       H  0.64155091  0.46594367  0.02076761     0.28610
H1163       H  0.67671161  0.01611401  0.09542502     0.19200
H1164       H  0.79161224  0.11325207  0.02441958     0.19210
C1165       C  0.77965871  0.45215918  0.02709556    -0.06630
C1166       C  0.74494293  0.40365740  0.03388452    -0.17750
C1167       C  0.74463778  0.38200190  0.05987074     0.10570
C1168       C  0.77824461  0.41048998  0.07928522    -0.06550
C1169       C  0.82290432  0.44802241  0.07073913    -0.17790
C1170       C  0.82572951  0.46652439  0.04440048     0.10600
S1171       S  0.70189220  0.31784623  0.06671355    -0.32750
S1172       S  0.88375682  0.51559429  0.03477962    -0.32760
H1173       H  0.87218399  0.51262834  0.00765684     0.28610
H1174       H  0.73502615  0.29877473  0.08834544     0.28610
H1175       H  0.71317402  0.38746474  0.02009157     0.19200
H1176       H  0.85343354  0.46580294  0.08480426     0.19210
C1177       C  0.76295986  0.05647910  0.97180615    -0.06630
C1178       C  0.80949190  0.03694258  0.95566740    -0.17750
C1179       C  0.80540898  0.04054368  0.92816979     0.10570
C1180       C  0.76022575  0.07497804  0.91682185    -0.06550
C1181       C  0.72262163  0.10703496  0.93376265    -0.17790
C1182       C  0.72511930  0.09922344  0.96123209     0.10600
S1183       S  0.85840302  0.99833867  0.90924349    -0.32750
S1184       S  0.67763597  0.14170288  0.98229997    -0.32760
H1185       H  0.72331110  0.16136502  0.99819013     0.28610
H1186       H  0.82410771  0.99130479  0.88672084     0.28610
H1187       H  0.84140059  0.00662693  0.96376571     0.19200
H1188       H  0.69157175  0.13826806  0.92567432     0.19210
C1189       C  0.71825933  0.45834651  0.97128113    -0.06630
C1190       C  0.75927151  0.41442513  0.96440131    -0.17750
C1191       C  0.76057103  0.39072005  0.93884243     0.10570
C1192       C  0.72345437  0.41418714  0.91934801    -0.06550
C1193       C  0.67656945  0.44989025  0.92754775    -0.17790
C1194       C  0.67222006  0.46994387  0.95350975     0.10600
S1195       S  0.80824887  0.32944007  0.93270449    -0.32750
S1196       S  0.60808146  0.51256801  0.96226500    -0.32760
H1197       H  0.62392688  0.02688015  0.98804165     0.28610
H1198       H  0.77188701  0.30205031  0.91422438     0.28610
H1199       H  0.79371253  0.40271152  0.97790110     0.19200
H1200       H  0.64413872  0.46434172  0.91349016     0.19210
C1201       C  0.54387324  0.27836329  0.03311414    -0.06630
C1202       C  0.57448249  0.22764624  0.04025692    -0.17750
C1203       C  0.59051959  0.21849015  0.06639214     0.10570
C1204       C  0.57889862  0.26205226  0.08585655    -0.06550
C1205       C  0.55563382  0.31635856  0.07756840    -0.17790
C1206       C  0.53924240  0.32521813  0.05140323     0.10600
S1207       S  0.62355505  0.14932942  0.07307192    -0.32750
S1208       S  0.50695810  0.39510677  0.04297671    -0.32760
H1209       H  0.53167014  0.39487529  0.01753272     0.28610
H1210       H  0.67035576  0.17666063  0.08570859     0.28610
H1211       H  0.57871429  0.19161104  0.02627295     0.19200
H1212       H  0.54879016  0.35179350  0.09164487     0.19210
C1213       C  0.94125271  0.24897044  0.02610921    -0.06630
C1214       C  0.94754854  0.19561113  0.04005874    -0.17750
C1215       C  0.94220620  0.19522270  0.06773028     0.10570
C1216       C  0.92171933  0.24672311  0.08093731    -0.06550
C1217       C  0.89949693  0.29331012  0.06534856    -0.17790
C1218       C  0.90592110  0.29209282  0.03777965     0.10600
S1219       S  0.96574779  0.12946930  0.08473509    -0.32750
S1220       S  0.87557076  0.34919411  0.01779456    -0.32760
H1221       H  0.86355379  0.31159432  0.99651287     0.28610
H1222       H  0.99517668  0.15995221  0.10470347     0.28610
H1223       H  0.96979413  0.15889494  0.03052333     0.19200
H1224       H  0.87709269  0.33030034  0.07444418     0.19210
C1225       C  0.56143670  0.25137830  0.97491502    -0.06630
C1226       C  0.55597829  0.19629085  0.96263517    -0.17750
C1227       C  0.56548913  0.19078889  0.93539442     0.10570
C1228       C  0.58843229  0.23917439  0.92087364    -0.06550
C1229       C  0.60817279  0.28841876  0.93515239    -0.17790
C1230       C  0.59686211  0.29305556  0.96238243     0.10600
S1231       S  0.53668866  0.12571006  0.92019809    -0.32750
S1232       S  0.62291887  0.35466066  0.98059662    -0.32760
H1233       H  0.63045383  0.32271532  0.00410573     0.28610
H1234       H  0.59128415  0.09709259  0.92038004     0.28610
H1235       H  0.53202161  0.16181055  0.97280969     0.19200
H1236       H  0.63077003  0.32387534  0.92510609     0.19210
C1237       C  0.95866539  0.28018863  0.96804386    -0.06630
C1238       C  0.92961577  0.22902972  0.96044913    -0.17750
C1239       C  0.91439323  0.22040340  0.93412865     0.10570
C1240       C  0.92698771  0.26374070  0.91486970    -0.06550
C1241       C  0.95029592  0.31754313  0.92334944    -0.17790
C1242       C  0.96306226  0.32709116  0.94980437     0.10600
S1243       S  0.88070154  0.15260500  0.92648636    -0.32750
S1244       S  0.98778547  0.39924311  0.95894391    -0.32760
H1245       H  0.96545885  0.39522392  0.98471301     0.28610
H1246       H  0.83154862  0.18132697  0.91589452     0.28610
H1247       H  0.92521749  0.19279278  0.97432192     0.19200
H1248       H  0.95818407  0.35298764  0.90943689     0.19210
C1249       C  0.75817683  0.00612515  0.25091435    -0.02990
C1250       C  0.49661218  0.77040696  0.01376678     0.00060
C1251       C  0.50611667  0.77291408  0.98745205     0.00060
C1252       C  0.74614721  0.49993922  0.75012285    -0.02990
C1253       C  0.49561422  0.74938936  0.75115547    -0.02990
C1254       C  0.73718967  0.50826299  0.98818981     0.00060
C1255       C  0.75073355  0.50339317  0.01402443     0.00060
C1256       C  0.72976972  0.90141570  0.89075086     0.41960
N1257       N  0.76290450  0.86829447  0.85356759     0.00850
C1258       C  0.58010243  0.69261441  0.77908810    -0.07030
H1259       H  0.61024753  0.64290834  0.87991485     0.06340
C1260       C  0.80644145  0.60398626  0.87195857    -0.07380
Co1261     Co  0.66338879  0.82124647  0.82315756     0.74180
N1262       N  0.62835300  0.71170979  0.85241179    -0.26560
Co1263     Co  0.67391381  0.66783996  0.82332092     0.74070
C1264       C  0.75723940  0.58528177  0.88802769     0.42060
N1265       N  0.86661759  0.72798710  0.85186386     0.00460
N1266       N  0.72578334  0.62651213  0.85240407     0.00570
N1267       N  0.57615699  0.79217440  0.77993999    -0.47410
H1268       H  0.63525813  0.89288721  0.87787022     0.06320
N1269       N  0.62393818  0.76957147  0.85320762     0.00850
N1270       N  0.72311914  0.62327799  0.79466582     0.00590
C1271       C  0.74936547  0.55469916  0.76755100     0.42200
N1272       N  0.86196811  0.78583082  0.85108250    -0.26020
C1273       C  0.68939068  0.91504277  0.77811814    -0.06940
N1274       N  0.77936826  0.88731531  0.87718094    -0.47120
N1275       N  0.70289433  0.58064860  0.77946407    -0.47350
C1276       C  0.74209156  0.94466301  0.76767020     0.41970
N1277       N  0.61875777  0.77159868  0.79502940     0.00840
N1278       N  0.86733850  0.78550344  0.79461860    -0.26040
N1279       N  0.70567372  0.86740171  0.85175062    -0.26530
N1280       N  0.87015083  0.72705774  0.79424142     0.00480
H1281       H  0.92225904  0.85205070  0.77692121     0.06370
H1282       H  0.84690661  0.57297298  0.77489671     0.06400
N1283       N  0.62171642  0.71316264  0.79524860    -0.26580
N1284       N  0.78299098  0.63007176  0.85098834    -0.26190
N1285       N  0.76658395  0.87600185  0.79509836     0.00840
C1286       C  0.59324507  0.73929985  0.89149953     0.42240
C1287       C  0.88896902  0.80928485  0.87161765    -0.07440
N1288       N  0.78087547  0.62621434  0.79431442    -0.26190
H1289       H  0.85246649  0.60242536  0.87620203     0.06390
N1290       N  0.60397940  0.78785220  0.87656750    -0.47410
H1291       H  0.89025973  0.85584446  0.87615518     0.06380
C1292       C  0.94067374  0.75337562  0.76846320     0.42080
C1293       C  0.68144215  0.89049889  0.87348677    -0.06940
Co1294     Co  0.81509535  0.82985218  0.82325595     0.73820
N1295       N  0.89428177  0.70989641  0.87339444    -0.47130
C1296       C  0.55001740  0.74533641  0.76863446     0.42340
N1297       N  0.78775770  0.91840031  0.77968380    -0.47120
Co1298     Co  0.82577549  0.67718192  0.82246371     0.73890
C1299       C  0.80138372  0.58457696  0.77766842    -0.07450
C1300       C  0.60824663  0.68896097  0.87501256    -0.07010
N1301       N  0.70885316  0.87320433  0.79482446    -0.26540
N1302       N  0.70846621  0.60098261  0.87476272    -0.47300
H1303       H  0.56884852  0.64665316  0.77675313     0.06350
C1304       C  0.91017572  0.80616568  0.77880977    -0.07420
Cl1305     Cl  0.74454132  0.74899394  0.82193104    -0.50430
C1306       C  0.90941897  0.75925579  0.88682263     0.42110
H1307       H  0.64402893  0.92680746  0.77537389     0.06320
N1308       N  0.91360414  0.70644973  0.77934690    -0.47140
C1309       C  0.56381852  0.75737856  0.23266106     0.41960
N1310       N  0.63430967  0.78506499  0.20670773     0.00850
C1311       C  0.80704302  0.60865559  0.12712361    -0.07030
H1312       H  0.85668521  0.57496114  0.22284078     0.06340
C1313       C  0.92524667  0.80953526  0.22101627    -0.07380
Co1314     Co  0.68540707  0.67879610  0.17945127     0.74180
N1315       N  0.79129127  0.63265284  0.20663547    -0.26560
Co1316     Co  0.83739643  0.68073700  0.17794202     0.74070
C1317       C  0.95424472  0.75763045  0.23228176     0.42060
N1318       N  0.78596454  0.88321560  0.20550806     0.00460
N1319       N  0.88540330  0.72991217  0.20605116     0.00570
N1320       N  0.70877329  0.60849247  0.13017209    -0.47410
H1321       H  0.58319134  0.65949730  0.22430547     0.06320
N1322       N  0.73351629  0.63252585  0.20789719     0.00850
N1323       N  0.87939615  0.72784567  0.14808366     0.00590
C1324       C  0.91669162  0.75069922  0.11019650     0.42200
N1325       N  0.72822226  0.88222716  0.20478928    -0.26020
C1326       C  0.61081194  0.70363733  0.12940949    -0.06940
N1327       N  0.59012893  0.80522106  0.22154925    -0.47120
N1328       N  0.90010035  0.70528505  0.12573434    -0.47350
C1329       C  0.59491868  0.75622005  0.11410269     0.41970
N1330       N  0.73230670  0.63393956  0.15086525     0.00840
N1331       N  0.73040075  0.87296839  0.14671789    -0.26040
N1332       N  0.63717461  0.72665924  0.20700161    -0.26530
N1333       N  0.78783516  0.87566040  0.14762943     0.00480
H1334       H  0.66987318  0.89205633  0.11511975     0.06370
H1335       H  0.90998940  0.84953451  0.11921455     0.06400
N1336       N  0.78976289  0.63540262  0.14957464    -0.26580
N1337       N  0.88347688  0.78835814  0.20538440    -0.26190
N1338       N  0.63928834  0.78206482  0.14939807     0.00840
C1339       C  0.75970437  0.56144082  0.23363927     0.42240
C1340       C  0.70702864  0.92382113  0.22113624    -0.07440
N1341       N  0.87978219  0.78595819  0.14808602    -0.26190
H1342       H  0.93718504  0.85549760  0.22251311     0.06390
N1343       N  0.71294993  0.59009232  0.22351758    -0.47410
H1344       H  0.66143518  0.93579602  0.22321956     0.06380
C1345       C  0.76817815  0.90324585  0.10809776     0.42080
C1346       C  0.59475044  0.70555775  0.22256760    -0.06940
Co1347     Co  0.68234205  0.83184203  0.17723344     0.73820
N1348       N  0.80553964  0.92471824  0.22173478    -0.47130
C1349       C  0.75300245  0.59185961  0.11423589     0.42340
N1350       N  0.61287988  0.80287751  0.12825027    -0.47120
Co1351     Co  0.83489154  0.83430966  0.17717948     0.73890
C1352       C  0.90480057  0.80423683  0.12540881    -0.07450
C1353       C  0.81154353  0.58902470  0.22190937    -0.07010
N1354       N  0.63986291  0.72406139  0.15029890    -0.26540
N1355       N  0.92769519  0.70984643  0.22162697    -0.47300
H1356       H  0.85139827  0.60426656  0.11992514     0.06350
C1357       C  0.71383538  0.89130367  0.12254858    -0.07420
Cl1358     Cl  0.76000280  0.75644002  0.17864336    -0.50430
C1359       C  0.75810823  0.95142970  0.23296976     0.42110
H1360       H  0.60359194  0.65756946  0.12530724     0.06320
N1361       N  0.81160968  0.89385141  0.12516086    -0.47140
C1362       C  0.99249814  0.69485715  0.73335761     0.41960
N1363       N  0.52003355  0.62606473  0.70638139     0.00850
C1364       C  0.85473076  0.94151773  0.62816426    -0.07030
H1365       H  0.82363599  0.90043089  0.72604637     0.06340
C1366       C  0.55059486  0.83375252  0.72307364    -0.07380
Co1367     Co  0.91953895  0.57408415  0.67613158     0.74180
N1368       N  0.87428648  0.96767662  0.70649208    -0.26560
Co1369     Co  0.92417009  0.92045840  0.67919012     0.74070
C1370       C  0.99874760  0.80463183  0.73394351     0.42060
N1371       N  0.62156757  0.97461499  0.70769531     0.00460
N1372       N  0.97230403  0.87452964  0.70756366     0.00570
N1373       N  0.86211962  0.53987971  0.62370483    -0.47410
H1374       H  0.89563276  0.68045879  0.72309375     0.06320
N1375       N  0.86962974  0.52595656  0.70511363     0.00850
N1376       N  0.97242286  0.87759862  0.65037581     0.00590
C1377       C  0.49305828  0.84798167  0.61118822     0.42200
N1378       N  0.61815629  0.53303018  0.70794077    -0.26020
C1379       C  0.95664138  0.63943355  0.62282561    -0.06940
N1380       N  0.53952972  0.66726908  0.72257583    -0.47120
N1381       N  0.94936626  0.85631458  0.62856068    -0.47350
C1382       C  0.51253982  0.65577737  0.61032333     0.41970
N1383       N  0.88110254  0.52225854  0.64707052     0.00840
N1384       N  0.61991252  0.53263041  0.65124250    -0.26040
N1385       N  0.96234099  0.62565969  0.70491467    -0.26530
N1386       N  0.62036287  0.97469973  0.65091462     0.00480
H1387       H  0.65633104  0.59786081  0.62496034     0.06370
H1388       H  0.59027441  0.86559510  0.61677440     0.06400
N1389       N  0.87956056  0.96451515  0.64959443    -0.26580
N1390       N  0.53000859  0.87600350  0.70695852    -0.26190
N1391       N  0.52742070  0.62006517  0.64906998     0.00840
C1392       C  0.80069525  0.49838926  0.73220545     0.42240
C1393       C  0.65998198  0.55432934  0.72356944    -0.07440
N1394       N  0.52960411  0.88297341  0.64884093    -0.26190
H1395       H  0.59604399  0.82146108  0.72502305     0.06390
N1396       N  0.82532551  0.54586147  0.71991287    -0.47410
H1397       H  0.67162375  0.60035040  0.72520788     0.06380
C1398       C  0.66755122  0.49888128  0.61577807     0.42080
C1399       C  0.94106689  0.66770205  0.72125312    -0.06940
Co1400     Co  0.57144680  0.57869751  0.67922806     0.73820
N1401       N  0.66558194  0.95473463  0.72211019    -0.47130
C1402       C  0.84557786  0.49113454  0.61036505     0.42340
N1403       N  0.55375965  0.64208410  0.62794482    -0.47120
Co1404     Co  0.57602825  0.92602431  0.67886570     0.73890
C1405       C  0.54662241  0.86454771  0.62467857    -0.07450
C1406       C  0.83334272  0.94662785  0.72308367    -0.07010
N1407       N  0.97030313  0.61708193  0.64672809    -0.26540
N1408       N  0.95207185  0.83165958  0.72290118    -0.47300
H1409       H  0.84894136  0.89502801  0.62452020     0.06350
C1410       C  0.65017869  0.55210116  0.63021963    -0.07420
Cl1411     Cl  0.49762790  0.49998833  0.67949136    -0.50430
C1412       C  0.69140681  0.00232120  0.73317118     0.42110
H1413       H  0.91340178  0.64212760  0.61485659     0.06320
N1414       N  0.64808349  0.95299999  0.63015108    -0.47140
C1415       C  0.70295945  0.00603428  0.26854861     0.41960
N1416       N  0.63341399  0.53338728  0.29548043     0.00850
C1417       C  0.95898948  0.86917163  0.37664931    -0.07030
H1418       H  0.91037494  0.82820589  0.27749081     0.06340
C1419       C  0.84166661  0.55863139  0.27869837    -0.07380
Co1420     Co  0.58143771  0.92778704  0.32254706     0.74180
N1421       N  0.97633860  0.88233242  0.29496687    -0.26560
Co1422     Co  0.92930797  0.93191742  0.32277695     0.74070
C1423       C  0.81255977  0.50648502  0.26822201     0.42060
N1424       N  0.98121487  0.63228687  0.29396136     0.00460
N1425       N  0.88282124  0.97936040  0.29376346     0.00570
N1426       N  0.55648764  0.86307825  0.37316133    -0.47410
H1427       H  0.68456538  0.90794940  0.27680546     0.06320
N1428       N  0.53407933  0.88107593  0.29397711     0.00850
N1429       N  0.88459118  0.98073694  0.35082300     0.00590
C1430       C  0.84183425  0.50488602  0.38732556     0.42200
N1431       N  0.53890587  0.63164365  0.29556897    -0.26020
C1432       C  0.64700025  0.95177465  0.37459463    -0.06940
N1433       N  0.67655151  0.55363688  0.28012457    -0.47120
N1434       N  0.85877313  0.95909509  0.37205321    -0.47350
C1435       C  0.65393308  0.50274307  0.39171488     0.41970
N1436       N  0.53344162  0.88502353  0.35143232     0.00840
N1437       N  0.53277300  0.62534525  0.35319012    -0.26040
N1438       N  0.63097232  0.97498994  0.29509636    -0.26530
N1439       N  0.97556085  0.62828014  0.35143112     0.00480
H1440       H  0.59128346  0.65179470  0.38394188     0.06370
H1441       H  0.85308370  0.60405521  0.37733549     0.06400
N1442       N  0.97612727  0.88925530  0.35277340    -0.26580
N1443       N  0.88442972  0.53781065  0.29392822    -0.26190
N1444       N  0.62246174  0.53114288  0.35375621     0.00840
C1445       C  0.00736151  0.81196267  0.26743738     0.42240
C1446       C  0.56020668  0.67427365  0.27988243    -0.07440
N1447       N  0.88547420  0.53865254  0.35073803    -0.26190
H1448       H  0.82872053  0.60452800  0.27733028     0.06390
N1449       N  0.55438368  0.83874790  0.27811202    -0.47410
H1450       H  0.60551523  0.68718678  0.27872766     0.06380
C1451       C  0.49275243  0.66708099  0.38928682     0.42080
C1452       C  0.67303340  0.95406246  0.27902683    -0.06940
Co1453     Co  0.58302345  0.58137636  0.32422305     0.73820
N1454       N  0.96178129  0.67427593  0.27781339    -0.47130
C1455       C  0.51267496  0.85182889  0.39010253     0.42340
N1456       N  0.63899605  0.55043981  0.37719050    -0.47120
Co1457     Co  0.93124731  0.58500386  0.32198163     0.73890
C1458       C  0.85819089  0.55816074  0.37258753    -0.07450
C1459       C  0.95577213  0.84033140  0.27909158    -0.07010
N1460       N  0.62436722  0.97318118  0.35220072    -0.26540
N1461       N  0.83990881  0.95888717  0.27887310    -0.47300
H1462       H  0.91492923  0.86914180  0.38431300     0.06350
C1463       C  0.54768246  0.64917637  0.37645371    -0.07420
Cl1464     Cl  0.50630633  0.50662674  0.32211384    -0.50430
C1465       C  0.00920534  0.70195311  0.26753920     0.42110
H1466       H  0.65272854  0.90569859  0.37938366     0.06320
N1467       N  0.95033905  0.65208901  0.37251593    -0.47140
C1468       C  0.50860555  0.74025457  0.51404103     0.00060
C1469       C  0.49914733  0.74243768  0.48744623     0.00060
C1470       C  0.75302992  0.98083462  0.51376278     0.00060
C1471       C  0.74546993  0.97387532  0.48745113     0.00060
C1472       C  0.50852148  0.75715212  0.24990955    -0.02990
C1473       C  0.46590174  0.69660205  0.47225794    -0.06630
C1474       C  0.42547036  0.72071299  0.45438312    -0.17750
C1475       C  0.93455667  0.71409488  0.42701213     0.10570
C1476       C  0.48143891  0.67797088  0.41778290    -0.06550
C1477       C  0.51173663  0.64373911  0.43645924    -0.17790
C1478       C  0.49447724  0.64548393  0.46317902     0.10600
S1479       S  0.88551650  0.75383954  0.40560172    -0.32750
S1480       S  0.46204230  0.57776468  0.47442142    -0.32760
H1481       H  0.50017398  0.54001989  0.46029786     0.28610
H1482       H  0.92307845  0.75708446  0.38364922     0.28610
H1483       H  0.89477129  0.75404092  0.46116516     0.19200
H1484       H  0.53909335  0.60763085  0.42956939     0.19210
C1485       C  0.52031055  0.79253869  0.47060349    -0.06630
C1486       C  0.56493124  0.77644232  0.45273024    -0.17750
C1487       C  0.56612285  0.79809687  0.42682542     0.10570
C1488       C  0.52104393  0.83640701  0.41828960    -0.06550
C1489       C  0.98307553  0.86062942  0.43735898    -0.17790
C1490       C  0.98342438  0.84041838  0.46353926     0.10600
S1491       S  0.62406557  0.77160609  0.40554025    -0.32750
S1492       S  0.93476597  0.87637866  0.48646838    -0.32760
H1493       H  0.91162096  0.82363383  0.49622818     0.28610
H1494       H  0.58831689  0.76061203  0.38381408     0.28610
H1495       H  0.59504378  0.74134600  0.45801207     0.19200
H1496       H  0.95156460  0.89409454  0.43168810     0.19210
C1497       C  0.65693699  0.50129424  0.42108971    -0.06630
C1498       C  0.64743642  0.94756260  0.43458349    -0.17750
C1499       C  0.66029991  0.94220434  0.46147510     0.10570
C1500       C  0.68909576  0.98818568  0.47419094    -0.06550
C1501       C  0.68496608  0.54457987  0.46278235    -0.17790
C1502       C  0.66930442  0.55180519  0.43634791     0.10600
S1503       S  0.64448859  0.87510044  0.47878272    -0.32750
S1504       S  0.67209675  0.62498249  0.42244829    -0.32760
H1505       H  0.67181753  0.65584429  0.44655827     0.28610
H1506       H  0.63116381  0.90469233  0.50241969     0.28610
H1507       H  0.63120655  0.90938781  0.42428873     0.19200
H1508       H  0.70409669  0.58171291  0.47248912     0.19210
C1509       C  0.82771567  0.49609960  0.41578273    -0.06630
C1510       C  0.81572668  0.93808121  0.42384452    -0.17750
C1511       C  0.79928086  0.92513102  0.44971014     0.10570
C1512       C  0.79559639  0.97094602  0.46861994    -0.06550
C1513       C  0.81811312  0.52618924  0.46179779    -0.17790
C1514       C  0.82930128  0.54051543  0.43541196     0.10600
S1515       S  0.77757808  0.85044180  0.45614675    -0.32750
S1516       S  0.83519200  0.61747316  0.42859345    -0.32760
H1517       H  0.78980244  0.61688518  0.41024637     0.28610
H1518       H  0.82392589  0.83933424  0.47311681     0.28610
H1519       H  0.81596096  0.90242312  0.40960258     0.19200
H1520       H  0.81536802  0.56176687  0.47606099     0.19210
C1521       C  0.67966017  0.49443465  0.58715195    -0.06630
C1522       C  0.67846207  0.54582148  0.57162264    -0.17750
C1523       C  0.69288805  0.54383875  0.54479856     0.10570
C1524       C  0.70357222  0.98848449  0.53261049    -0.06550
C1525       C  0.69141364  0.93730839  0.54705218    -0.17790
C1526       C  0.68771280  0.93929186  0.57453521     0.10600
S1527       S  0.70057267  0.61405257  0.52833833    -0.32750
S1528       S  0.70113690  0.87184916  0.59269820    -0.32760
H1529       H  0.70279085  0.83301970  0.57105059     0.28610
H1530       H  0.74230464  0.59649048  0.50979038     0.28610
H1531       H  0.67026956  0.58846068  0.58053980     0.19200
H1532       H  0.69690577  0.89507453  0.53754546     0.19210
C1533       C  0.84014541  0.48716617  0.58109336    -0.06630
C1534       C  0.83981516  0.93145919  0.56881333    -0.17750
C1535       C  0.82357474  0.92563408  0.54235184     0.10570
C1536       C  0.81077935  0.97684149  0.52728194    -0.06550
C1537       C  0.82944513  0.53092883  0.53751165    -0.17790
C1538       C  0.83576700  0.53746729  0.56481410     0.10600
S1539       S  0.81002028  0.85182669  0.53094135    -0.32750
S1540       S  0.82499087  0.60993022  0.57810486    -0.32760
H1541       H  0.88323230  0.62315435  0.57274337     0.28610
H1542       H  0.77309055  0.86752147  0.51035499     0.28610
H1543       H  0.84644094  0.89165994  0.58021585     0.19200
H1544       H  0.82541739  0.57036110  0.52570352     0.19210
C1545       C  0.54378910  0.69331506  0.52816591    -0.06630
C1546       C  0.08257023  0.71610565  0.54698563    -0.17750
C1547       C  0.07289335  0.70519644  0.57407793     0.10570
C1548       C  0.52662479  0.66751160  0.58202913    -0.06550
C1549       C  0.50091043  0.63279310  0.56239528    -0.17790
C1550       C  0.51757376  0.63986751  0.53576837     0.10600
S1551       S  0.11916716  0.74246457  0.59710238    -0.32750
S1552       S  0.54829996  0.57326682  0.52210006    -0.32760
H1553       H  0.57917024  0.60128331  0.50143016     0.28610
H1554       H  0.07687960  0.74927499  0.61711220     0.28610
H1555       H  0.11156141  0.75168192  0.54135414     0.19200
H1556       H  0.47797745  0.59319943  0.56830183     0.19210
C1557       C  0.48382898  0.83557622  0.58285012    -0.06630
C1558       C  0.94214279  0.79373384  0.57571855    -0.17750
C1559       C  0.94089775  0.77196191  0.54989234     0.10570
C1560       C  0.48559823  0.78738458  0.53191011    -0.06550
C1561       C  0.52013428  0.83654689  0.53763098    -0.17790
C1562       C  0.51649516  0.86315624  0.56259146     0.10600
S1563       S  0.88513295  0.72026111  0.54127743    -0.32750
S1564       S  0.54916033  0.93426661  0.56687506    -0.32760
H1565       H  0.51112427  0.95294690  0.58726590     0.28610
H1566       H  0.88967980  0.72826125  0.51386529     0.28610
H1567       H  0.91239675  0.77599250  0.59044856     0.19200
H1568       H  0.55178333  0.85202611  0.52327696     0.19210
C1569       C  0.74389175  0.57913379  0.08624922    -0.06630
C1570       C  0.70175543  0.53752375  0.07989696    -0.17750
C1571       C  0.69007351  0.52482227  0.05359511     0.10570
C1572       C  0.72794106  0.54644446  0.03353028    -0.06590
C1573       C  0.76399034  0.59394009  0.03957815    -0.17790
C1574       C  0.76931317  0.61271902  0.06567664     0.10600
S1575       S  0.62909957  0.97746444  0.04733616    -0.32750
S1576       S  0.80258199  0.68278258  0.07089016    -0.32760
H1577       H  0.77212061  0.69737870  0.09421819     0.28610
H1578       H  0.64155201  0.96594360  0.02076730     0.28610
H1579       H  0.67671144  0.51611426  0.09542520     0.19200
H1580       H  0.79161195  0.61325134  0.02441944     0.19210
C1581       C  0.77965983  0.95215975  0.02709559    -0.06630
C1582       C  0.74494418  0.90365782  0.03388448    -0.17750
C1583       C  0.74463888  0.88200231  0.05987070     0.10570
C1584       C  0.77824538  0.91049055  0.07928525    -0.06550
C1585       C  0.82290502  0.94802318  0.07073925    -0.17790
C1586       C  0.82573039  0.96652517  0.04440059     0.10600
S1587       S  0.70189351  0.81784643  0.06671343    -0.32750
S1588       S  0.88375755  0.01559537  0.03477985    -0.32760
H1589       H  0.87218480  0.01262966  0.00765704     0.28610
H1590       H  0.73502746  0.79877503  0.08834534     0.28610
H1591       H  0.71317548  0.88746500  0.02009146     0.19200
H1592       H  0.85343402  0.96580386  0.08480444     0.19210
C1593       C  0.76295818  0.55647904  0.97180625    -0.06630
C1594       C  0.80949052  0.53694301  0.95566757    -0.17750
C1595       C  0.80540791  0.54054434  0.92816996     0.10570
C1596       C  0.76022459  0.57497846  0.91682196    -0.06550
C1597       C  0.72261992  0.60703484  0.93376273    -0.17790
C1598       C  0.72511734  0.59922310  0.96123217     0.10600
S1599       S  0.85840240  0.49833981  0.90924371    -0.32750
S1600       S  0.67763325  0.64170180  0.98230000    -0.32760
H1601       H  0.72330759  0.66136284  0.99819089     0.28610
H1602       H  0.82410699  0.49130528  0.88672112     0.28610
H1603       H  0.84139932  0.50662748  0.96376587     0.19200
H1604       H  0.69156979  0.63826764  0.92567438     0.19210
C1605       C  0.71826017  0.95834691  0.97128116    -0.06630
C1606       C  0.75927204  0.91442532  0.96440125    -0.17750
C1607       C  0.76057114  0.89072019  0.93884238     0.10570
C1608       C  0.72345437  0.91418740  0.91934803    -0.06550
C1609       C  0.67656968  0.94989072  0.92754788    -0.17790
C1610       C  0.67222074  0.96994444  0.95350990     0.10600
S1611       S  0.80824858  0.82943998  0.93270436    -0.32750
S1612       S  0.60808249  0.01256891  0.96226535    -0.32760
H1613       H  0.62392509  0.52687854  0.98804147     0.28610
H1614       H  0.77188641  0.80205041  0.91422431     0.28610
H1615       H  0.79371317  0.90271155  0.97790097     0.19200
H1616       H  0.64413883  0.96434228  0.91349036     0.19210
C1617       C  0.54387387  0.77836385  0.03311388    -0.06630
C1618       C  0.57448309  0.72764676  0.04025663    -0.17750
C1619       C  0.59052031  0.71849068  0.06639183     0.10570
C1620       C  0.57889943  0.76205279  0.08585625    -0.06550
C1621       C  0.55563475  0.81635915  0.07756810    -0.17790
C1622       C  0.53924323  0.82521873  0.05140295     0.10600
S1623       S  0.62355579  0.64932995  0.07307158    -0.32750
S1624       S  0.50695902  0.89510740  0.04297642    -0.32760
H1625       H  0.53167019  0.89487538  0.01753226     0.28610
H1626       H  0.67035646  0.67666110  0.08570832     0.28610
H1627       H  0.57871475  0.69161154  0.02627266     0.19200
H1628       H  0.54879119  0.85179411  0.09164457     0.19210
C1629       C  0.94125325  0.74897113  0.02610917    -0.06630
C1630       C  0.94754910  0.69561182  0.04005868    -0.17750
C1631       C  0.94220670  0.69522331  0.06773022     0.10570
C1632       C  0.92171969  0.74672364  0.08093726    -0.06550
C1633       C  0.89949739  0.79331073  0.06534852    -0.17790
C1634       C  0.90592172  0.79209357  0.03777962     0.10600
S1635       S  0.96574837  0.62946992  0.08473500    -0.32750
S1636       S  0.87557196  0.84919521  0.01779456    -0.32760
H1637       H  0.86355390  0.81159540  0.99651301     0.28610
H1638       H  0.99517711  0.65995284  0.10470342     0.28610
H1639       H  0.96979472  0.65889565  0.03052326     0.19200
H1640       H  0.87709319  0.83030095  0.07444415     0.19210
C1641       C  0.56143644  0.75137869  0.97491473    -0.06630
C1642       C  0.55597716  0.69629142  0.96263480    -0.17750
C1643       C  0.56548771  0.69078959  0.93539403     0.10570
C1644       C  0.58843151  0.73917486  0.92087333    -0.06550
C1645       C  0.60817283  0.78841882  0.93515212    -0.17790
C1646       C  0.59686236  0.79305557  0.96238218     0.10600
S1647       S  0.53668611  0.62571143  0.92019757    -0.32750
S1648       S  0.62292007  0.85466021  0.98059640    -0.32760
H1649       H  0.63045512  0.82271453  0.00410541     0.28610
H1650       H  0.59128089  0.59709257  0.92037997     0.28610
H1651       H  0.53202003  0.66181139  0.97280928     0.19200
H1652       H  0.63077054  0.82387512  0.92510584     0.19210
C1653       C  0.95866538  0.78019005  0.96804379    -0.06630
C1654       C  0.92961482  0.72903151  0.96044929    -0.17750
C1655       C  0.91439190  0.72040502  0.93412887     0.10570
C1656       C  0.92698737  0.76374159  0.91486972    -0.06550
C1657       C  0.95029640  0.81754382  0.92334923    -0.17790
C1658       C  0.96306285  0.82709218  0.94980413     0.10600
S1659       S  0.88069782  0.65260760  0.92648696    -0.32750
S1660       S  0.98778707  0.89924393  0.95894342    -0.32760
H1661       H  0.96545923  0.89522593  0.98471236     0.28610
H1662       H  0.83154623  0.68133064  0.91589443     0.28610
H1663       H  0.92521589  0.69279493  0.97432223     0.19200
H1664       H  0.95818511  0.85298791  0.90943652     0.19210
loop_ 
_geom_bond_atom_site_label_1 
_geom_bond_atom_site_label_2 
_geom_bond_distance 
_geom_bond_site_symmetry_2 
_ccdc_geom_bond_type 
C1          C111   1.537       .  S
C1          C167   1.541       .  S
C1          C507   1.527       .  S
C1          C591   1.531       .  S
C2            C3   1.349   1_654  D
C2          C369   1.480   1_655  S
C2         C1213   1.492       .  S
C3          C393   1.491       .  S
C3         C1237   1.481   1_455  S
C4           C23   1.526   1_565  S
C4          C144   1.537       .  S
C4          C444   1.537       .  S
C4          C580   1.528   1_565  S
C5           C48   1.539   1_655  S
C5          C946   1.532       .  S
C5          C876   1.528       .  S
C5          C954   1.525       .  S
C6            C7   1.352   1_556  D
C6          C345   1.492       .  S
C6          C773   1.489   1_545  S
C7          C324   1.478       .  S
C7          C749   1.490   1_545  S
C8           N26   1.358       .  A
C8           C45   1.441       .  S
C8          C360   1.482       .  S
N9           N26   1.331       .  A
N9           N31   1.316       .  A
N9          Co46   2.120       .  S
C10          N35   1.349       .  A
C10          C48   1.475       .  S
C10          H55   1.081       .  S
H11          C52   1.073       .  S
C12          N36   1.331       .  A
C12          C16   1.448       .  S
C12          H41   1.079       .  S
Co13         N31   2.044       .  S
Co13         N21   2.117       .  S
Co13         N53   2.123       .  S
Co13         N29   2.095       .  S
Co13        Cl57   2.469       .  S
N14          C52   1.333       .  A
N14          N21   1.314       .  A
N14         Co15   2.050       .  S
Co15         N18   2.115       .  S
Co15         N35   2.126       .  S
Co15         N22   2.085       .  S
Co15        Cl57   2.458       .  S
C16          N54   1.355       .  A
C16         C348   1.478       .  S
N17          N24   1.314       .  A
N17          N47   1.330       .  A
N17         Co50   2.113       .  S
N18          N36   1.315       .  A
N18          N54   1.328       .  A
N19          C48   1.353       .  A
N19          N29   1.327       .  A
H20          C45   1.080       .  S
N21          N42   1.329       .  A
N22          N40   1.325       .  A
N22          N27   1.325       .  A
C23          N27   1.350       .  A
C23          C51   1.472       .  S
N24          C39   1.329       .  A
N24         Co46   2.036       .  S
C25          N53   1.346       .  A
C25          C28   1.478       .  S
C25          H59   1.082       .  S
C28         C420   1.537       .  S
C28          N49   1.350       .  A
N29          N35   1.325       .  A
N30          C56   1.346       .  A
N30          N32   1.325       .  A
N30         Co46   2.120       .  S
N31          C45   1.333       .  A
N32          N60   1.325       .  A
N32         Co50   2.081       .  S
H33          C56   1.081       .  S
H34          C51   1.082       .  S
N36         Co50   2.041       .  S
N37          N49   1.328       .  A
N37          N53   1.325       .  A
N37         Co46   2.091       .  S
C38          N42   1.356       .  A
C38          C52   1.451       .  S
C38         C396   1.490       .  S
C39          C58   1.447       .  S
C39          H43   1.080       .  S
N40          C51   1.345       .  A
N40         Co50   2.115       .  S
C44         C837   1.528       .  S
C44          N60   1.348       .  A
C44          C56   1.475       .  S
Co46        Cl57   2.453       .  S
N47          C58   1.358       .  A
Co50        Cl57   2.464       .  S
C58         C408   1.484       .  S
C61         C224   1.531       .  S
C61          N79   1.362       .  A
C61          C98   1.457       .  S
N62          N79   1.333       .  A
N62          N84   1.324       .  A
N62         Co99   2.130       .  S
C63          N88   1.343       .  A
C63         C101   1.459       .  S
C63         H108   1.080       .  S
H64         C105   1.082       .  S
C65          N89   1.340       .  A
C65          C69   1.464       .  S
C65          H94   1.081       .  S
Co66         N84   2.073       .  S
Co66         N74   2.098       .  S
Co66        N106   2.081       .  S
Co66         N82   2.058       .  S
Co66       Cl110   2.461       .  S
N67         C105   1.338       .  A
N67          N74   1.325       .  A
N67         Co68   2.095       .  S
Co68         N71   2.129       .  S
Co68         N88   2.089       .  S
Co68         N75   2.080       .  S
Co68       Cl110   2.458       .  S
C69        C1056   1.538       .  S
C69         N107   1.360       .  A
N70          N77   1.324       .  A
N70         N100   1.333       .  A
N70        Co103   2.120       .  S
N71          N89   1.325       .  A
N71         N107   1.333       .  A
N72         C101   1.341       .  A
N72          N82   1.319       .  A
H73          C98   1.081       .  S
N74          N95   1.329       .  A
N75          N93   1.316       .  A
N75          N80   1.324       .  A
C76          N80   1.348       .  A
C76         C104   1.460       .  S
C76         C384   1.487       .  S
N77          C92   1.340       .  A
N77         Co99   2.099       .  S
C78         N106   1.340       .  A
C78          C81   1.466       .  S
C78         H112   1.079       .  S
C81         N102   1.347       .  A
C81         C372   1.486       .  S
N82          N88   1.318       .  A
N83         C109   1.349       .  A
N83          N85   1.319       .  A
N83         Co99   2.107       .  S
N84          C98   1.335       .  A
N85         N113   1.322       .  A
N85        Co103   2.072       .  S
H86         C109   1.079       .  S
H87         C104   1.079       .  S
N89        Co103   2.092       .  S
N90         N102   1.320       .  A
N90         N106   1.315       .  A
N90         Co99   2.069       .  S
C91         C417   1.527       .  S
C91          N95   1.354       .  A
C91         C105   1.466       .  S
C92         C111   1.465       .  S
C92          H96   1.082       .  S
N93         C104   1.344       .  A
N93        Co103   2.093       .  S
C97         N113   1.340       .  A
C97         C109   1.464       .  S
C97         C336   1.483       .  S
Co99       Cl110   2.459       .  S
N100        C111   1.360       .  A
C101        C321   1.464       .  S
Co103      Cl110   2.470       .  S
C114        C837   1.532       .  S
C114        N964   1.352       .  A
C114        C151   1.473       .  S
N115        N132   1.326       .  A
N115        N969   1.325   1_455  A
N115       Co152   2.093       .  S
C116        N141   1.338       .  A
C116        C570   1.455       .  S
C116        H161   1.079       .  S
H117        C158   1.081       .  S
C118        N142   1.343       .  A
C118        C954   1.465   1_455  S
C118        H147   1.082       .  S
Co119       N137   2.122       .  S
Co119       N127   2.151       .  S
Co119       N159   2.119       .  S
Co119       N135   2.089       .  S
Co119      Cl995   2.452   1_545  S
N120        C158   1.342       .  A
N120        N543   1.325       .  A
N120       Co121   2.077       .  S
Co121       N124   2.092       .  S
Co121       N141   2.074       .  S
Co121       N128   2.061       .  S
Co121     Cl1411   2.474       .  S
C122        C837   1.525       .  S
C122        N160   1.354       .  A
C122        C950   1.465       .  S
N123        N153   1.327       .  A
N123        N546   1.325       .  A
N123       Co156   2.118       .  S
N124        N160   1.326       .  A
N124        N974   1.323       .  A
N125        C154   1.354   1_545  A
N125        N135   1.325       .  A
H126        C151   1.082       .  S
N127        N148   1.332       .  A
N127        N536   1.325   1_545  A
N128        N133   1.322       .  A
N128        N978   1.318       .  A
C129        N965   1.338       .  A
C129        C157   1.462   1_655  S
C129        C309   1.480       .  S
N130        C145   1.342       .  A
N130        N539   1.325   1_545  A
N130       Co152   2.084       .  S
C131        N159   1.350       .  A
C131        C966   1.472       .  S
C131        H165   1.075       .  S
N132        C946   1.352   1_455  A
N133        C961   1.338       .  A
C134        N155   1.341       .  A
C134        C300   1.489       .  S
C134        C963   1.472   1_455  S
N135        N557   1.315   1_545  A
N136        C162   1.340       .  A
N136        N554   1.312   1_545  A
N136       Co152   2.070       .  S
N137        C151   1.347       .  A
N137        N947   1.325       .  A
N138        N166   1.316       .  A
N138        N552   1.312       .  A
N138       Co156   2.057       .  S
H139        C162   1.080       .  S
H140        C157   1.074       .  S
N141        N551   1.315       .  A
N142        N956   1.323   1_455  A
N142       Co156   2.097       .  S
N143        N155   1.321       .  A
N143        N991   1.318   1_455  A
N143       Co152   2.060       .  S
C144        N148   1.364   1_565  A
C144        C574   1.459       .  S
C145        C580   1.462       .  S
C145        H149   1.081       .  S
N146        C157   1.346       .  A
N146        N960   1.318   1_455  A
N146       Co156   2.109       .  S
C150        N582   1.344       .  A
C150        C162   1.461   1_565  S
C150        C273   1.476       .  S
Co152      Cl163   2.466   1_445  S
N153        C164   1.358       .  A
C154        C285   1.491       .  S
C154        C532   1.455       .  S
Co156      Cl579   2.448   1_455  S
C158        C560   1.459       .  S
N159        N975   1.318       .  A
Cl163      Co951   2.452   1_565  S
Cl163     Co1369   2.474       .  S
Cl163      Co572   2.448   1_655  S
C164        C420   1.528       .  S
C164        C561   1.462       .  S
N166        C566   1.344       .  A
C167        N601   1.363       .  A
C167        C204   1.463       .  S
N168        N185   1.334       .  A
N168        N606   1.325   1_545  A
N168       Co205   2.141       .  S
C169        N194   1.346       .  A
C169       C1039   1.464       .  S
C169        H214   1.078       .  S
H170        C211   1.082       .  S
C171        N195   1.336       .  A
C171        C175   1.463       .  S
C171        H200   1.081       .  S
Co172       N190   2.084       .  S
Co172       N180   2.108       .  S
Co172       N212   2.081       .  S
Co172       N188   2.065       .  S
Co172      Cl632   2.472       .  S
N173        C211   1.338       .  A
N173       N1012   1.324       .  A
N173       Co174   2.088       .  S
Co174       N177   2.112       .  S
Co174       N194   2.099       .  S
Co174       N181   2.060       .  S
Co174     Cl1464   2.453       .  S
C175        C417   1.531       .  S
C175        N629   1.357   1_545  A
N176        N206   1.331       .  A
N176       N1015   1.325       .  A
N176       Co209   2.109       .  S
N177        N213   1.332       .  A
N177        N611   1.325       .  A
N178        C207   1.339       .  A
N178        N188   1.320       .  A
H179        C204   1.081       .  S
N180        N201   1.330       .  A
N180       N1005   1.324   1_455  A
N181        N186   1.317       .  A
N181        N615   1.312       .  A
C182        N602   1.347   1_545  A
C182        C210   1.467       .  S
C182        C261   1.486   1_545  S
N183        C198   1.341       .  A
N183       N1008   1.325   1_455  A
N183       Co205   2.106       .  S
C184        N212   1.340       .  A
C184        C603   1.455       .  S
C184        H218   1.079       .  S
N185        C583   1.363       .  A
N186        C598   1.347       .  A
C187        N208   1.350       .  A
C187        C249   1.490       .  S
C187        C600   1.455   1_545  S
N188       N1026   1.317   1_455  A
N189        C215   1.345       .  A
N189       N1023   1.316   1_455  A
N189       Co205   2.102       .  S
N190        C204   1.339       .  A
N190        N584   1.325       .  A
N191        N219   1.322       .  A
N191       N1021   1.316       .  A
N191       Co209   2.065       .  S
H192        C215   1.074       .  S
H193        C210   1.073       .  S
N194       N1020   1.317       .  A
N195        N593   1.325   1_545  A
N195       Co209   2.089       .  S
N196        N208   1.325       .  A
N196        N628   1.316   1_545  A
N196       Co205   2.087       .  S
C197       C1056   1.527       .  S
C197       N1033   1.358       .  A
C197        C211   1.461       .  S
C198       C1049   1.467       .  S
C198        H202   1.082       .  S
N199        C210   1.339       .  A
N199        N597   1.312   1_545  A
N199       Co209   2.074       .  S
N201       C1029   1.358       .  A
C203       N1051   1.343       .  A
C203        C215   1.465   1_655  S
C203        C228   1.484       .  S
Co205      Cl216   2.452       .  S
N206        C217   1.357       .  A
C207        C240   1.483       .  S
C207       C1001   1.464   1_455  S
Co209     Cl1048   2.463       .  S
N212        N612   1.316       .  A
N213        C591   1.357       .  A
Cl216      Co588   2.472   1_545  S
Cl216     Co1422   2.453   1_445  S
Cl216     Co1041   2.463   1_455  S
C217       C1056   1.535       .  S
C217       C1030   1.467       .  S
N219       C1035   1.343       .  A
C220        C221   1.367   1_455  D
C220        C297   1.513       .  S
C220        C312   1.490   1_455  S
C221        C225   1.508       .  S
C221        C237   1.499   1_655  S
C222        C223   1.355       .  D
C222        C276   1.483       .  S
C222        C288   1.498       .  S
C223        C252   1.495       .  S
C223        C264   1.486       .  S
C224        C901   1.538   1_455  S
C224       C1029   1.527       .  S
C224       C1049   1.535       .  S
C225        C226   1.409       .  A
C225        C230   1.402       .  A
C226       H1067   1.082       .  S
C226       C1059   1.407       .  A
C227       C1058   1.407       .  A
C227       C1060   1.421       .  A
C227        S231   1.805       .  S
C228        C229   1.408   1_655  A
C228       C1059   1.421       .  A
C229        H236   1.083       .  S
C229        C230   1.406   1_455  A
C230        S232   1.798       .  S
S231        H234   1.400       .  S
S232        H233   1.408   1_655  S
H235       C1058   1.082       .  S
C237        C238   1.404       .  A
C237       C1074   1.418   1_455  A
C238        H247   1.084       .  S
C238        C239   1.400       .  A
C239        C240   1.415       .  A
C239        S243   1.801       .  S
C240       C1073   1.402   1_455  A
C241        H248   1.084       .  S
C241        C242   1.402       .  A
C241       C1072   1.402       .  A
C242       C1069   1.418       .  A
C242        S244   1.793       .  S
S243        H246   1.402       .  S
S244        H245   1.398       .  S
C249        C254   1.413       .  A
C249        C666   1.412   1_545  A
C250        H259   1.081       .  S
C250        C251   1.401       .  A
C250        C665   1.412       .  A
C251        C252   1.398       .  A
C251        S255   1.791       .  S
C252        C669   1.404       .  A
C253        H260   1.073       .  S
C253        C254   1.398       .  A
C253        C668   1.404   1_545  A
C254        S256   1.801       .  S
S255        H258   1.402       .  S
S256        H257   1.407       .  S
C261        C266   1.416   1_565  A
C261        C678   1.404       .  A
C262        H271   1.083       .  S
C262        C263   1.390       .  A
C262        C677   1.404       .  A
C263        C264   1.414       .  A
C263        S267   1.795       .  S
C264        C681   1.398       .  A
C265        H272   1.084       .  S
C265        C266   1.396       .  A
C265        C680   1.398   1_545  A
C266        S268   1.782       .  S
S267        H270   1.394       .  S
S268        H269   1.402       .  S
C273        C274   1.404   1_565  A
C273        C694   1.414       .  A
C274        H283   1.081       .  S
C274        C275   1.395       .  A
C275        C692   1.417   1_545  A
C275        S279   1.803       .  S
C276        C277   1.398       .  A
C276        C691   1.417       .  A
C277        H284   1.077       .  S
C277        C278   1.394       .  A
C278        C689   1.414       .  A
C278        S280   1.808       .  S
S279        H282   1.389       .  S
S280        H281   1.406       .  S
C285        C290   1.409   1_565  A
C285        C702   1.408       .  A
C286        H295   1.080       .  S
C286        C287   1.401       .  A
C286        C701   1.408       .  A
C287        C288   1.418       .  A
C287        S291   1.800       .  S
C288        C705   1.402       .  A
C289        H296   1.078       .  S
C289        C290   1.399       .  A
C289        C704   1.402   1_545  A
C290        S292   1.789       .  S
S291        H294   1.394       .  S
S292        H293   1.393       .  S
C297        C302   1.407       .  A
C297       C1130   1.411       .  A
C298        H307   1.084       .  S
C298        C299   1.409       .  A
C298       C1129   1.411       .  A
C299       C1132   1.420       .  A
C299        S303   1.799       .  S
C300        C301   1.405       .  A
C300       C1131   1.420       .  A
C301        H308   1.083   1_455  S
C301        C302   1.406       .  A
C302        S304   1.797       .  S
S303        H306   1.402       .  S
S304        H305   1.409       .  S
C309        C314   1.411   1_655  A
C309       C1142   1.401       .  A
C310        H319   1.084       .  S
C310        C311   1.399       .  A
C310       C1141   1.401       .  A
C311       C1144   1.408       .  A
C311        S315   1.797       .  S
C312        C313   1.403   1_655  A
C312       C1143   1.408       .  A
C313        H320   1.081       .  S
C313        C314   1.402       .  A
C314        S316   1.795       .  S
S315        H318   1.402       .  S
S316        H317   1.407       .  S
C321        C322   1.394       .  A
C321        C326   1.412       .  A
C322        H331   1.084       .  S
C322        C323   1.392       .  A
C323        C324   1.418       .  A
C323        S743   1.799   1_545  S
C324        C325   1.397       .  A
C325        H332   1.083       .  S
C325        C326   1.395       .  A
C326        S328   1.787       .  S
S327        C739   1.799       .  S
S327        H330   1.397       .  S
S328        H329   1.404       .  S
C333        C423   1.490       .  S
C333        C334   1.401       .  A
C333        C338   1.419       .  A
C334        H343   1.080       .  S
C334        C335   1.403       .  A
C335        C336   1.414       .  A
C335        S339   1.790       .  S
C336        C337   1.400       .  A
C337        H344   1.084       .  S
C337        C338   1.398       .  A
C338        S340   1.802       .  S
S339        H342   1.405       .  S
S340        H341   1.403       .  S
C345        C346   1.406       .  A
C345        C350   1.404       .  A
C346        H355   1.083       .  S
C346        C347   1.398       .  A
C347        C348   1.418       .  A
C347        S351   1.808   1_545  S
C348        C349   1.408       .  A
C349        H356   1.083       .  S
C349        C350   1.403       .  A
C350        S352   1.792       .  S
S351        H354   1.402       .  S
S352        H353   1.402       .  S
C357        C422   1.489       .  S
C357        C358   1.405       .  A
C357        C362   1.417       .  A
C358        H367   1.081       .  S
C358        C359   1.402       .  A
C359        C360   1.411       .  A
C359        S363   1.786       .  S
C360        C361   1.400       .  A
C361        H368   1.083       .  S
C361        C362   1.394       .  A
C362        S364   1.804       .  S
S363        H366   1.407       .  S
S364        H781   1.397       .  S
H365        S780   1.397       .  S
C369        C370   1.391       .  A
C369        C374   1.412       .  A
C370        H379   1.084       .  S
C370        C371   1.392       .  A
C371        C372   1.417       .  A
C371        S375   1.769       .  S
C372        C373   1.403       .  A
C373        H380   1.084       .  S
C373        C374   1.395       .  A
C374        S376   1.795       .  S
S375        H378   1.403       .  S
S376        H377   1.401       .  S
C381        C834   1.492       .  S
C381        C382   1.406       .  A
C381        C386   1.392       .  A
C382        H391   1.084       .  S
C382        C383   1.405       .  A
C383        C384   1.420       .  A
C383        S387   1.802       .  S
C384        C385   1.412       .  A
C385        H392   1.081       .  S
C385        C386   1.402       .  A
C386        S388   1.783       .  S
S387        H390   1.406       .  S
S388        H389   1.405   1_554  S
C393        C394   1.402       .  A
C393        C398   1.397       .  A
C394        H403   1.084       .  S
C394        C395   1.399       .  A
C395        C396   1.420       .  A
C395        S399   1.797       .  S
C396        C397   1.410       .  A
C397        H404   1.082       .  S
C397        C398   1.404       .  A
C398        S400   1.784       .  S
S399        H402   1.405       .  S
S400        H401   1.404   1_556  S
C405        C835   1.481       .  S
C405        C406   1.397       .  A
C405        C410   1.410       .  A
C406        H415   1.084       .  S
C406        C407   1.395       .  A
C407        C408   1.412       .  A
C407        S411   1.769       .  S
C408        C409   1.404       .  A
C409        H416   1.082       .  S
C409        C410   1.391       .  A
C410        S412   1.796       .  S
S411        H414   1.407       .  S
S412        H413   1.399       .  S
C417        C527   1.537   1_545  S
C417        C583   1.541       .  S
C418        C419   1.349   1_654  D
C418        C785   1.480   1_655  S
C418       C1629   1.492       .  S
C419        C809   1.491       .  S
C419       C1653   1.481   1_455  S
C420        C439   1.526       .  S
C420        C560   1.537       .  S
C421        C464   1.539   1_655  S
C421       C1362   1.532       .  S
C421       C1292   1.528       .  S
C421       C1370   1.525       .  S
C422        C423   1.352   1_556  D
C422        C761   1.492       .  S
C423        C740   1.478       .  S
C424        N442   1.358       .  A
C424        C461   1.441       .  S
C424        C776   1.482       .  S
N425        N442   1.331       .  A
N425        N447   1.316       .  A
N425       Co462   2.120       .  S
C426        N451   1.349       .  A
C426        C464   1.475       .  S
C426        H471   1.081       .  S
H427        C468   1.073       .  S
C428        N452   1.331       .  A
C428        C432   1.448       .  S
C428        H457   1.079       .  S
Co429       N447   2.044       .  S
Co429       N437   2.117       .  S
Co429       N469   2.123       .  S
Co429       N445   2.095       .  S
Co429      Cl473   2.469       .  S
N430        C468   1.333       .  A
N430        N437   1.314       .  A
N430       Co431   2.050       .  S
Co431       N434   2.115       .  S
Co431       N451   2.126       .  S
Co431       N438   2.085       .  S
Co431      Cl473   2.458       .  S
C432        N470   1.355       .  A
C432        C764   1.478       .  S
N433        N440   1.314       .  A
N433        N463   1.330       .  A
N433       Co466   2.113       .  S
N434        N452   1.315       .  A
N434        N470   1.328       .  A
N435        C464   1.353       .  A
N435        N445   1.327       .  A
H436        C461   1.080       .  S
N437        N458   1.329       .  A
N438        N456   1.325       .  A
N438        N443   1.325       .  A
C439        N443   1.350       .  A
C439        C467   1.472       .  S
N440        C455   1.329       .  A
N440       Co462   2.036       .  S
C441        N469   1.346       .  A
C441        C444   1.478       .  S
C441        H475   1.082       .  S
C444        N465   1.350       .  A
N445        N451   1.325       .  A
N446        C472   1.346       .  A
N446        N448   1.325       .  A
N446       Co462   2.120       .  S
N447        C461   1.333       .  A
N448        N476   1.325       .  A
N448       Co466   2.081       .  S
H449        C472   1.081       .  S
H450        C467   1.082       .  S
N452       Co466   2.041       .  S
N453        N465   1.328       .  A
N453        N469   1.325       .  A
N453       Co462   2.091       .  S
C454        N458   1.356       .  A
C454        C468   1.451       .  S
C454        C812   1.490       .  S
C455        C474   1.447       .  S
C455        H459   1.080       .  S
N456        C467   1.345       .  A
N456       Co466   2.115       .  S
C460       C1253   1.528       .  S
C460        N476   1.348       .  A
C460        C472   1.475       .  S
Co462      Cl473   2.453       .  S
N463        C474   1.358       .  A
Co466      Cl473   2.464       .  S
C474        C824   1.484       .  S
C477        C640   1.531       .  S
C477        N495   1.362       .  A
C477        C514   1.457       .  S
N478        N495   1.333       .  A
N478        N500   1.324       .  A
N478       Co515   2.130       .  S
C479        N504   1.343       .  A
C479        C517   1.459       .  S
C479        H524   1.080       .  S
H480        C521   1.082       .  S
C481        N505   1.340       .  A
C481        C485   1.464       .  S
C481        H510   1.081       .  S
Co482       N500   2.073       .  S
Co482       N490   2.098       .  S
Co482       N522   2.081       .  S
Co482       N498   2.058       .  S
Co482      Cl526   2.461       .  S
N483        C521   1.338       .  A
N483        N490   1.325       .  A
N483       Co484   2.095       .  S
Co484       N487   2.129       .  S
Co484       N504   2.089       .  S
Co484       N491   2.080       .  S
Co484      Cl526   2.458       .  S
C485       C1472   1.538       .  S
C485        N523   1.360       .  A
N486        N493   1.324       .  A
N486        N516   1.333       .  A
N486       Co519   2.120       .  S
N487        N505   1.325       .  A
N487        N523   1.333       .  A
N488        C517   1.341       .  A
N488        N498   1.319       .  A
H489        C514   1.081       .  S
N490        N511   1.329       .  A
N491        N509   1.316       .  A
N491        N496   1.324       .  A
C492        N496   1.348       .  A
C492        C520   1.460       .  S
C492        C800   1.487       .  S
N493        C508   1.340       .  A
N493       Co515   2.099       .  S
C494        N522   1.340       .  A
C494        C497   1.466       .  S
C494        H528   1.079       .  S
C497        N518   1.347       .  A
C497        C788   1.486       .  S
N498        N504   1.318       .  A
N499        C525   1.349       .  A
N499        N501   1.319       .  A
N499       Co515   2.107       .  S
N500        C514   1.335       .  A
N501        N529   1.322       .  A
N501       Co519   2.072       .  S
H502        C525   1.079       .  S
H503        C520   1.079       .  S
N505       Co519   2.092       .  S
N506        N518   1.320       .  A
N506        N522   1.315       .  A
N506       Co515   2.069       .  S
C507        N511   1.354       .  A
C507        C521   1.466       .  S
C508        C527   1.465       .  S
C508        H512   1.082       .  S
N509        C520   1.344       .  A
N509       Co519   2.093       .  S
C513        N529   1.340       .  A
C513        C525   1.464       .  S
C513        C752   1.483       .  S
Co515      Cl526   2.459       .  S
N516        C527   1.360       .  A
C517        C737   1.464       .  S
Co519      Cl526   2.470       .  S
C530       C1253   1.532       .  S
C530       N1380   1.352       .  A
C530        C567   1.473       .  S
N531        N548   1.326       .  A
N531       N1385   1.325   1_455  A
N531       Co568   2.093       .  S
C532        N557   1.338       .  A
C532        H577   1.079       .  S
H533        C574   1.081       .  S
C534        N558   1.343       .  A
C534       C1370   1.465   1_455  S
C534        H563   1.082       .  S
Co535       N553   2.122       .  S
Co535       N543   2.151       .  S
Co535       N575   2.119       .  S
Co535       N551   2.089       .  S
Co535     Cl1411   2.452       .  S
N536        C574   1.342       .  A
N536       Co537   2.077       .  S
Co537       N540   2.092       .  S
Co537       N557   2.074       .  S
Co537       N544   2.061       .  S
Co537      Cl995   2.474       .  S
C538       C1253   1.525       .  S
C538        N576   1.354       .  A
C538       C1366   1.465       .  S
N539        N569   1.327       .  A
N539       Co572   2.118       .  S
N540       N1390   1.323       .  A
N540        N576   1.326       .  A
N541        C570   1.354       .  A
N541        N551   1.325       .  A
H542        C567   1.082       .  S
N543        N564   1.332       .  A
N544       N1394   1.318       .  A
N544        N549   1.322       .  A
C545       N1381   1.338       .  A
C545        C573   1.462   1_655  S
C545        C725   1.480       .  S
N546        C561   1.342       .  A
N546       Co568   2.084       .  S
C547        N575   1.350       .  A
C547       C1382   1.472       .  S
C547        H581   1.075       .  S
N548       C1362   1.352   1_455  A
N549       C1377   1.338       .  A
C550        N571   1.341       .  A
C550       C1379   1.472   1_455  S
C550        C716   1.489       .  S
N552        C578   1.340       .  A
N552       Co568   2.070       .  S
N553        C567   1.347       .  A
N553       N1363   1.325       .  A
N554        N582   1.316       .  A
N554       Co572   2.057       .  S
H555        C578   1.080       .  S
H556        C573   1.074       .  S
N558       N1372   1.323   1_455  A
N558       Co572   2.097       .  S
N559        N571   1.321       .  A
N559       N1407   1.318   1_455  A
N559       Co568   2.060       .  S
C560        N564   1.364       .  A
C561        H565   1.081       .  S
N562        C573   1.346       .  A
N562       N1376   1.318   1_455  A
N562       Co572   2.109       .  S
C566        C578   1.461       .  S
C566        C689   1.476       .  S
Co568      Cl579   2.466   1_455  S
N569        C580   1.358   1_565  A
C570        C701   1.491       .  S
N575       N1391   1.318       .  A
Cl579     Co1367   2.452       .  S
Cl579      Co953   2.474       .  S
C583        C620   1.463   1_545  S
N584        N601   1.334       .  A
N584       Co621   2.141       .  S
C585        N610   1.346       .  A
C585       C1455   1.464       .  S
C585        H630   1.078       .  S
H586        C627   1.082       .  S
C587        N611   1.336       .  A
C587        C591   1.463       .  S
C587        H616   1.081       .  S
Co588       N606   2.084       .  S
Co588       N596   2.108       .  S
Co588       N628   2.081       .  S
Co588       N604   2.065       .  S
N589        C627   1.338       .  A
N589       N1428   1.324       .  A
N589       Co590   2.088       .  S
Co590       N593   2.112       .  S
Co590       N610   2.099       .  S
Co590       N597   2.060       .  S
Co590     Cl1048   2.453   1_565  S
N592       N1431   1.325       .  A
N592        N622   1.331       .  A
N592       Co625   2.109       .  S
N593        N629   1.332       .  A
N594        C623   1.339       .  A
N594        N604   1.320       .  A
H595        C620   1.081       .  S
N596       N1421   1.324   1_455  A
N596        N617   1.330       .  A
N597        N602   1.317       .  A
C598        C626   1.467       .  S
C598        C677   1.486       .  S
N599        C614   1.341       .  A
N599       N1424   1.325   1_455  A
N599       Co621   2.106       .  S
C600        N628   1.340       .  A
C600        H634   1.079       .  S
C603        N624   1.350       .  A
C603        C665   1.490       .  S
N604       N1442   1.317   1_455  A
N605        C631   1.345       .  A
N605       N1439   1.316   1_455  A
N605       Co621   2.102       .  S
N606        C620   1.339       .  A
N607       N1437   1.316       .  A
N607        N635   1.322       .  A
N607       Co625   2.065       .  S
H608        C631   1.074       .  S
H609        C626   1.073       .  S
N610       N1436   1.317       .  A
N611       Co625   2.089       .  S
N612        N624   1.325       .  A
N612       Co621   2.087       .  S
C613       C1472   1.527       .  S
C613       N1449   1.358       .  A
C613        C627   1.461       .  S
C614       C1465   1.467       .  S
C614        H618   1.082       .  S
N615        C626   1.339       .  A
N615       Co625   2.074       .  S
N617       C1445   1.358       .  A
C619       N1467   1.343       .  A
C619        C631   1.465   1_655  S
C619        C644   1.484       .  S
Co621      Cl632   2.452       .  S
N622        C633   1.357       .  A
C623       C1417   1.464   1_455  S
C623        C656   1.483       .  S
Co625     Cl1464   2.463       .  S
Cl632     Co1006   2.453   1_455  S
Cl632     Co1457   2.463   1_455  S
C633       C1472   1.535       .  S
C633       C1446   1.467       .  S
N635       C1451   1.343       .  A
C636        C637   1.367   1_455  D
C636        C713   1.513       .  S
C636        C728   1.490   1_455  S
C637        C641   1.508       .  S
C637        C653   1.499   1_655  S
C638        C639   1.355       .  D
C638        C692   1.483       .  S
C638        C704   1.498       .  S
C639        C668   1.495       .  S
C639        C680   1.486       .  S
C640       C1317   1.538   1_455  S
C640       C1445   1.527       .  S
C640       C1465   1.535       .  S
C641        C642   1.409       .  A
C641        C646   1.402       .  A
C642       H1483   1.082       .  S
C642       C1475   1.407       .  A
C643       C1474   1.407       .  A
C643       C1476   1.421       .  A
C643        S647   1.805       .  S
C644       C1475   1.421       .  A
C644        C645   1.408   1_655  A
C645        H652   1.083       .  S
C645        C646   1.406   1_455  A
C646        S648   1.798       .  S
S647        H650   1.400       .  S
S648        H649   1.408   1_655  S
H651       C1474   1.082       .  S
C653        C654   1.404       .  A
C653       C1490   1.418   1_455  A
C654        H663   1.084       .  S
C654        C655   1.400       .  A
C655        C656   1.415       .  A
C655        S659   1.801       .  S
C656       C1489   1.402   1_455  A
C657        H664   1.084       .  S
C657       C1488   1.402       .  A
C657        C658   1.402       .  A
C658       C1485   1.418       .  A
C658        S660   1.793       .  S
S659        H662   1.402       .  S
S660        H661   1.398       .  S
C665        C670   1.413       .  A
C666        H675   1.081       .  S
C666        C667   1.401       .  A
C667        C668   1.398       .  A
C667        S671   1.791       .  S
C669        H676   1.073       .  S
C669        C670   1.398       .  A
C670        S672   1.801       .  S
S671        H674   1.402       .  S
S672        H673   1.407       .  S
C677        C682   1.416       .  A
C678        H687   1.083       .  S
C678        C679   1.390       .  A
C679        C680   1.414       .  A
C679        S683   1.795       .  S
C681        H688   1.084       .  S
C681        C682   1.396       .  A
C682        S684   1.782       .  S
S683        H686   1.394       .  S
S684        H685   1.402       .  S
C689        C690   1.404       .  A
C690        H699   1.081       .  S
C690        C691   1.395       .  A
C691        S695   1.803       .  S
C692        C693   1.398       .  A
C693        H700   1.077       .  S
C693        C694   1.394       .  A
C694        S696   1.808       .  S
S695        H698   1.389       .  S
S696        H697   1.406       .  S
C701        C706   1.409       .  A
C702        H711   1.080       .  S
C702        C703   1.401       .  A
C703        C704   1.418       .  A
C703        S707   1.800       .  S
C705        H712   1.078       .  S
C705        C706   1.399       .  A
C706        S708   1.789       .  S
S707        H710   1.394       .  S
S708        H709   1.393       .  S
C713       C1546   1.411       .  A
C713        C718   1.407       .  A
C714        H723   1.084       .  S
C714       C1545   1.411       .  A
C714        C715   1.409       .  A
C715       C1548   1.420       .  A
C715        S719   1.799       .  S
C716       C1547   1.420       .  A
C716        C717   1.405       .  A
C717        H724   1.083   1_455  S
C717        C718   1.406       .  A
C718        S720   1.797       .  S
S719        H722   1.402       .  S
S720        H721   1.409       .  S
C725       C1558   1.401       .  A
C725        C730   1.411   1_655  A
C726        H735   1.084       .  S
C726       C1557   1.401       .  A
C726        C727   1.399       .  A
C727       C1560   1.408       .  A
C727        S731   1.797       .  S
C728       C1559   1.408       .  A
C728        C729   1.403   1_655  A
C729        H736   1.081       .  S
C729        C730   1.402       .  A
C730        S732   1.795       .  S
S731        H734   1.402       .  S
S732        H733   1.407       .  S
C737        C738   1.394       .  A
C737        C742   1.412       .  A
C738        H747   1.084       .  S
C738        C739   1.392       .  A
C739        C740   1.418       .  A
C740        C741   1.397       .  A
C741        H748   1.083       .  S
C741        C742   1.395       .  A
C742        S744   1.787       .  S
S743        H746   1.397       .  S
S744        H745   1.404       .  S
C749        C750   1.401       .  A
C749        C754   1.419       .  A
C750        H759   1.080       .  S
C750        C751   1.403       .  A
C751        C752   1.414       .  A
C751        S755   1.790       .  S
C752        C753   1.400       .  A
C753        H760   1.084       .  S
C753        C754   1.398       .  A
C754        S756   1.802   1_565  S
S755        H758   1.405       .  S
S756        H757   1.403       .  S
C761        C762   1.406       .  A
C761        C766   1.404       .  A
C762        H771   1.083       .  S
C762        C763   1.398       .  A
C763        C764   1.418       .  A
C763        S767   1.808       .  S
C764        C765   1.408       .  A
C765        H772   1.083       .  S
C765        C766   1.403       .  A
C766        S768   1.792       .  S
S767        H770   1.402       .  S
S768        H769   1.402       .  S
C773        C774   1.405       .  A
C773        C778   1.417       .  A
C774        H783   1.081       .  S
C774        C775   1.402       .  A
C775        C776   1.411       .  A
C775        S779   1.786       .  S
C776        C777   1.400       .  A
C777        H784   1.083       .  S
C777        C778   1.394       .  A
C778        S780   1.804   1_565  S
S779        H782   1.407       .  S
C785        C786   1.391       .  A
C785        C790   1.412       .  A
C786        H795   1.084       .  S
C786        C787   1.392       .  A
C787        C788   1.417       .  A
C787        S791   1.769       .  S
C788        C789   1.403       .  A
C789        H796   1.084       .  S
C789        C790   1.395       .  A
C790        S792   1.795       .  S
S791        H794   1.403       .  S
S792        H793   1.401       .  S
C797       C1250   1.492       .  S
C797        C798   1.406       .  A
C797        C802   1.392       .  A
C798        H807   1.084       .  S
C798        C799   1.405       .  A
C799        C800   1.420       .  A
C799        S803   1.802       .  S
C800        C801   1.412       .  A
C801        H808   1.081       .  S
C801        C802   1.402       .  A
C802        S804   1.783       .  S
S803        H806   1.406       .  S
S804        H805   1.405   1_554  S
C809        C810   1.402       .  A
C809        C814   1.397       .  A
C810        H819   1.084       .  S
C810        C811   1.399       .  A
C811        C812   1.420       .  A
C811        S815   1.797       .  S
C812        C813   1.410       .  A
C813        H820   1.082       .  S
C813        C814   1.404       .  A
C814        S816   1.784       .  S
S815        H818   1.405       .  S
S816        H817   1.404   1_556  S
C821       C1251   1.481       .  S
C821        C822   1.397       .  A
C821        C826   1.410       .  A
C822        H831   1.084       .  S
C822        C823   1.395       .  A
C823        C824   1.412       .  A
C823        S827   1.769       .  S
C824        C825   1.404       .  A
C825        H832   1.082       .  S
C825        C826   1.391       .  A
C826        S828   1.796       .  S
S827        H830   1.407       .  S
S828        H829   1.399       .  S
C833       C1339   1.527       .  S
C833       C1423   1.531       .  S
C833        C943   1.537       .  S
C833        C999   1.541       .  S
C834        C835   1.349   1_554  D
C834       C1201   1.480       .  S
C835       C1225   1.491       .  S
C836        C855   1.526   1_565  S
C836        C976   1.537       .  S
C836       C1276   1.537       .  S
C836       C1412   1.528   1_565  S
C837        C880   1.539       .  S
C838        C839   1.352   1_556  D
C838       C1177   1.492       .  S
C838       C1605   1.489   1_545  S
C839       C1156   1.478       .  S
C839       C1581   1.490   1_545  S
C840        N858   1.358       .  A
C840        C877   1.441       .  S
C840       C1192   1.482       .  S
N841        N858   1.331       .  A
N841        N863   1.316       .  A
N841       Co878   2.120       .  S
C842        N867   1.349       .  A
C842        C880   1.475       .  S
C842        H887   1.081       .  S
H843        C884   1.073       .  S
C844        N868   1.331       .  A
C844        C848   1.448       .  S
C844        H873   1.079       .  S
Co845       N863   2.044       .  S
Co845       N853   2.117       .  S
Co845       N885   2.123       .  S
Co845       N861   2.095       .  S
Co845      Cl889   2.469       .  S
N846        C884   1.333       .  A
N846        N853   1.314       .  A
N846       Co847   2.050       .  S
Co847       N850   2.115       .  S
Co847       N867   2.126       .  S
Co847       N854   2.085       .  S
Co847      Cl889   2.458       .  S
C848        N886   1.355       .  A
C848       C1180   1.478       .  S
N849        N856   1.314       .  A
N849        N879   1.330       .  A
N849       Co882   2.113       .  S
N850        N868   1.315       .  A
N850        N886   1.328       .  A
N851        C880   1.353       .  A
N851        N861   1.327       .  A
H852        C877   1.080       .  S
N853        N874   1.329       .  A
N854        N872   1.325       .  A
N854        N859   1.325       .  A
C855        N859   1.350       .  A
C855        C883   1.472       .  S
N856        C871   1.329       .  A
N856       Co878   2.036       .  S
C857        N885   1.346       .  A
C857        C860   1.478       .  S
C857        H891   1.082       .  S
C860       C1252   1.537       .  S
C860        N881   1.350       .  A
N861        N867   1.325       .  A
N862        C888   1.346       .  A
N862        N864   1.325       .  A
N862       Co878   2.120       .  S
N863        C877   1.333       .  A
N864        N892   1.325       .  A
N864       Co882   2.081       .  S
H865        C888   1.081       .  S
H866        C883   1.082       .  S
N868       Co882   2.041       .  S
N869        N881   1.328       .  A
N869        N885   1.325       .  A
N869       Co878   2.091       .  S
C870        N874   1.356       .  A
C870        C884   1.451       .  S
C870       C1228   1.490       .  S
C871        C890   1.447       .  S
C871        H875   1.080       .  S
N872        C883   1.345       .  A
N872       Co882   2.115       .  S
C876        N892   1.348       .  A
C876        C888   1.475       .  S
Co878      Cl889   2.453       .  S
N879        C890   1.358       .  A
Co882      Cl889   2.464       .  S
C890       C1240   1.484       .  S
C893       C1056   1.531       .  S
C893        N911   1.362       .  A
C893        C930   1.457       .  S
N894        N911   1.333       .  A
N894        N916   1.324       .  A
N894       Co931   2.130       .  S
C895        N920   1.343       .  A
C895        C933   1.459       .  S
C895        H940   1.080       .  S
H896        C937   1.082       .  S
C897        N921   1.340       .  A
C897        C901   1.464       .  S
C897        H926   1.081       .  S
Co898       N916   2.073       .  S
Co898       N906   2.098       .  S
Co898       N938   2.081       .  S
Co898       N914   2.058       .  S
Co898      Cl942   2.461       .  S
N899        C937   1.338       .  A
N899        N906   1.325       .  A
N899       Co900   2.095       .  S
Co900       N903   2.129       .  S
Co900       N920   2.089       .  S
Co900       N907   2.080       .  S
Co900      Cl942   2.458       .  S
C901        N939   1.360       .  A
N902        N909   1.324       .  A
N902        N932   1.333       .  A
N902       Co935   2.120       .  S
N903        N921   1.325       .  A
N903        N939   1.333       .  A
N904        C933   1.341       .  A
N904        N914   1.319       .  A
H905        C930   1.081       .  S
N906        N927   1.329       .  A
N907        N925   1.316       .  A
N907        N912   1.324       .  A
C908        N912   1.348       .  A
C908        C936   1.460       .  S
C908       C1216   1.487       .  S
N909        C924   1.340       .  A
N909       Co931   2.099       .  S
C910        N938   1.340       .  A
C910        C913   1.466       .  S
C910        H944   1.079       .  S
C913        N934   1.347       .  A
C913       C1204   1.486       .  S
N914        N920   1.318       .  A
N915        C941   1.349       .  A
N915        N917   1.319       .  A
N915       Co931   2.107       .  S
N916        C930   1.335       .  A
N917        N945   1.322       .  A
N917       Co935   2.072       .  S
H918        C941   1.079       .  S
H919        C936   1.079       .  S
N921       Co935   2.092       .  S
N922        N934   1.320       .  A
N922        N938   1.315       .  A
N922       Co931   2.069       .  S
C923       C1249   1.527       .  S
C923        N927   1.354       .  A
C923        C937   1.466       .  S
C924        C943   1.465       .  S
C924        H928   1.082       .  S
N925        C936   1.344       .  A
N925       Co935   2.093       .  S
C929        N945   1.340       .  A
C929        C941   1.464       .  S
C929       C1168   1.483       .  S
Co931      Cl942   2.459       .  S
N932        C943   1.360       .  A
C933       C1153   1.464       .  S
Co935      Cl942   2.470       .  S
C946        C983   1.473       .  S
N947        N964   1.326       .  A
N947       Co984   2.093       .  S
C948        N973   1.338       .  A
C948       C1402   1.455       .  S
C948        H993   1.079       .  S
H949        C990   1.081       .  S
C950        N974   1.343       .  A
C950        H979   1.082       .  S
Co951       N969   2.122       .  S
Co951       N959   2.151       .  S
Co951       N991   2.119       .  S
Co951       N967   2.089       .  S
N952        C990   1.342       .  A
N952       N1375   1.325       .  A
N952       Co953   2.077       .  S
Co953       N956   2.092       .  S
Co953       N973   2.074       .  S
Co953       N960   2.061       .  S
C954        N992   1.354       .  A
N955       N1378   1.325       .  A
N955        N985   1.327       .  A
N955       Co988   2.118       .  S
N956        N992   1.326       .  A
N957        C986   1.354   1_545  A
N957        N967   1.325       .  A
H958        C983   1.082       .  S
N959       N1368   1.325   1_545  A
N959        N980   1.332       .  A
N960        N965   1.322       .  A
C961        C989   1.462       .  S
C961       C1141   1.480       .  S
N962        C977   1.342       .  A
N962       N1371   1.325   1_545  A
N962       Co984   2.084       .  S
C963        N991   1.350       .  A
C963        H997   1.075       .  S
C966        N987   1.341       .  A
C966       C1132   1.489       .  S
N967       N1389   1.315   1_545  A
N968        C994   1.340       .  A
N968       N1386   1.312   1_545  A
N968       Co984   2.070       .  S
N969        C983   1.347       .  A
N970       N1384   1.312       .  A
N970        N998   1.316       .  A
N970       Co988   2.057       .  S
H971        C994   1.080       .  S
H972        C989   1.074       .  S
N973       N1383   1.315       .  A
N974       Co988   2.097       .  S
N975        N987   1.321       .  A
N975       Co984   2.060       .  S
C976        N980   1.364   1_565  A
C976       C1406   1.459       .  S
C977       C1412   1.462       .  S
C977        H981   1.081       .  S
N978        C989   1.346       .  A
N978       Co988   2.109       .  S
C982       N1414   1.344       .  A
C982        C994   1.461   1_565  S
C982       C1105   1.476       .  S
Co984      Cl995   2.466   1_545  S
N985        C996   1.358       .  A
C986       C1364   1.455       .  S
C986       C1117   1.491       .  S
Co988     Cl1411   2.448       .  S
C990       C1392   1.459       .  S
Cl995     Co1404   2.448       .  S
C996       C1252   1.528       .  S
C996       C1393   1.462       .  S
N998       C1398   1.344       .  A
C999       N1433   1.363       .  A
C999       C1036   1.463       .  S
N1000      N1017   1.334       .  A
N1000      N1438   1.325   1_545  A
N1000     Co1037   2.141       .  S
C1001      N1026   1.346       .  A
C1001      H1046   1.078       .  S
H1002      C1043   1.082       .  S
C1003      N1027   1.336       .  A
C1003      C1007   1.463       .  S
C1003      H1032   1.081       .  S
Co1004     N1022   2.084       .  S
Co1004     N1012   2.108       .  S
Co1004     N1044   2.081       .  S
Co1004     N1020   2.065       .  S
Co1004    Cl1464   2.472       .  S
N1005      C1043   1.338       .  A
N1005     Co1006   2.088       .  S
Co1006     N1009   2.112       .  S
Co1006     N1026   2.099       .  S
Co1006     N1013   2.060       .  S
C1007      C1249   1.531       .  S
C1007      N1461   1.357   1_545  A
N1008      N1038   1.331       .  A
N1008     Co1041   2.109       .  S
N1009      N1443   1.325       .  A
N1009      N1045   1.332       .  A
N1010      C1039   1.339       .  A
N1010      N1020   1.320       .  A
H1011      C1036   1.081       .  S
N1012      N1033   1.330       .  A
N1013      N1447   1.312       .  A
N1013      N1018   1.317       .  A
C1014      N1434   1.347   1_545  A
C1014      C1042   1.467       .  S
C1014      C1093   1.486   1_545  S
N1015      C1030   1.341       .  A
N1015     Co1037   2.106       .  S
C1016      N1044   1.340       .  A
C1016      C1435   1.455       .  S
C1016      H1050   1.079       .  S
N1017      C1415   1.363       .  A
N1018      C1430   1.347       .  A
C1019      N1040   1.350       .  A
C1019      C1432   1.455   1_545  S
C1019      C1081   1.490       .  S
N1021      C1047   1.345       .  A
N1021     Co1037   2.102       .  S
N1022      C1036   1.339       .  A
N1022      N1416   1.325       .  A
N1023      N1051   1.322       .  A
N1023     Co1041   2.065       .  S
H1024      C1047   1.074       .  S
H1025      C1042   1.073       .  S
N1027      N1425   1.325   1_545  A
N1027     Co1041   2.089       .  S
N1028      N1040   1.325       .  A
N1028      N1460   1.316   1_545  A
N1028     Co1037   2.087       .  S
C1029      C1043   1.461   1_455  S
C1030      H1034   1.082       .  S
N1031      C1042   1.339       .  A
N1031      N1429   1.312   1_545  A
N1031     Co1041   2.074       .  S
C1035      C1047   1.465       .  S
C1035      C1060   1.484       .  S
Co1037    Cl1048   2.452       .  S
N1038      C1049   1.357   1_655  A
C1039      C1072   1.483       .  S
N1044      N1444   1.316       .  A
N1045      C1423   1.357       .  A
Cl1048    Co1420   2.472   1_545  S
C1052      C1053   1.367       .  D
C1052      C1129   1.513       .  S
C1052      C1144   1.490       .  S
C1053      C1057   1.508       .  S
C1053      C1069   1.499       .  S
C1054      C1055   1.355       .  D
C1054      C1108   1.483       .  S
C1054      C1120   1.498       .  S
C1055      C1084   1.495       .  S
C1055      C1096   1.486       .  S
C1057      C1058   1.409       .  A
C1057      C1062   1.402       .  A
C1059      S1063   1.805       .  S
C1060      C1061   1.408       .  A
C1061      H1068   1.083       .  S
C1061      C1062   1.406       .  A
C1062      S1064   1.798       .  S
S1063      H1066   1.400       .  S
S1064      H1065   1.408       .  S
C1069      C1070   1.404       .  A
C1070      H1079   1.084       .  S
C1070      C1071   1.400       .  A
C1071      C1072   1.415       .  A
C1071      S1075   1.801       .  S
C1073      H1080   1.084       .  S
C1073      C1074   1.402       .  A
C1074      S1076   1.793       .  S
S1075      H1078   1.402       .  S
S1076      H1077   1.398       .  S
C1081      C1498   1.412   1_545  A
C1081      C1086   1.413       .  A
C1082      H1091   1.081       .  S
C1082      C1497   1.412       .  A
C1082      C1083   1.401       .  A
C1083      C1084   1.398       .  A
C1083      S1087   1.791       .  S
C1084      C1501   1.404       .  A
C1085      H1092   1.073       .  S
C1085      C1500   1.404   1_545  A
C1085      C1086   1.398       .  A
C1086      S1088   1.801       .  S
S1087      H1090   1.402       .  S
S1088      H1089   1.407       .  S
C1093      C1510   1.404       .  A
C1093      C1098   1.416   1_565  A
C1094      H1103   1.083       .  S
C1094      C1509   1.404       .  A
C1094      C1095   1.390       .  A
C1095      C1096   1.414       .  A
C1095      S1099   1.795       .  S
C1096      C1513   1.398       .  A
C1097      H1104   1.084       .  S
C1097      C1512   1.398   1_545  A
C1097      C1098   1.396       .  A
C1098      S1100   1.782       .  S
S1099      H1102   1.394       .  S
S1100      H1101   1.402       .  S
C1105      C1106   1.404   1_565  A
C1105      C1526   1.414       .  A
C1106      H1115   1.081       .  S
C1106      C1107   1.395       .  A
C1107      C1524   1.417   1_545  A
C1107      S1111   1.803       .  S
C1108      C1523   1.417       .  A
C1108      C1109   1.398       .  A
C1109      H1116   1.077       .  S
C1109      C1110   1.394       .  A
C1110      C1521   1.414       .  A
C1110      S1112   1.808       .  S
S1111      H1114   1.389       .  S
S1112      H1113   1.406       .  S
C1117      C1534   1.408       .  A
C1117      C1122   1.409   1_565  A
C1118      H1127   1.080       .  S
C1118      C1533   1.408       .  A
C1118      C1119   1.401       .  A
C1119      C1120   1.418       .  A
C1119      S1123   1.800       .  S
C1120      C1537   1.402       .  A
C1121      H1128   1.078       .  S
C1121      C1536   1.402   1_545  A
C1121      C1122   1.399       .  A
C1122      S1124   1.789       .  S
S1123      H1126   1.394       .  S
S1124      H1125   1.393       .  S
C1129      C1134   1.407       .  A
C1130      H1139   1.084       .  S
C1130      C1131   1.409       .  A
C1131      S1135   1.799       .  S
C1132      C1133   1.405       .  A
C1133      H1140   1.083       .  S
C1133      C1134   1.406       .  A
C1134      S1136   1.797       .  S
S1135      H1138   1.402       .  S
S1136      H1137   1.409       .  S
C1141      C1146   1.411       .  A
C1142      H1151   1.084       .  S
C1142      C1143   1.399       .  A
C1143      S1147   1.797       .  S
C1144      C1145   1.403       .  A
C1145      H1152   1.081       .  S
C1145      C1146   1.402       .  A
C1146      S1148   1.795       .  S
S1147      H1150   1.402       .  S
S1148      H1149   1.407       .  S
C1153      C1154   1.394       .  A
C1153      C1158   1.412       .  A
C1154      H1163   1.084       .  S
C1154      C1155   1.392       .  A
C1155      C1156   1.418       .  A
C1155      S1575   1.799   1_545  S
C1156      C1157   1.397       .  A
C1157      H1164   1.083       .  S
C1157      C1158   1.395       .  A
C1158      S1160   1.787       .  S
S1159      C1571   1.799       .  S
S1159      H1162   1.397       .  S
S1160      H1161   1.404       .  S
C1165      C1255   1.490       .  S
C1165      C1166   1.401       .  A
C1165      C1170   1.419       .  A
C1166      H1175   1.080       .  S
C1166      C1167   1.403       .  A
C1167      C1168   1.414       .  A
C1167      S1171   1.790       .  S
C1168      C1169   1.400       .  A
C1169      H1176   1.084       .  S
C1169      C1170   1.398       .  A
C1170      S1172   1.802       .  S
S1171      H1174   1.405       .  S
S1172      H1173   1.403       .  S
C1177      C1178   1.406       .  A
C1177      C1182   1.404       .  A
C1178      H1187   1.083       .  S
C1178      C1179   1.398       .  A
C1179      C1180   1.418       .  A
C1179      S1183   1.808   1_545  S
C1180      C1181   1.408       .  A
C1181      H1188   1.083       .  S
C1181      C1182   1.403       .  A
C1182      S1184   1.792       .  S
S1183      H1186   1.402       .  S
S1184      H1185   1.402       .  S
C1189      C1254   1.489       .  S
C1189      C1190   1.405       .  A
C1189      C1194   1.417       .  A
C1190      H1199   1.081       .  S
C1190      C1191   1.402       .  A
C1191      C1192   1.411       .  A
C1191      S1195   1.786       .  S
C1192      C1193   1.400       .  A
C1193      H1200   1.083       .  S
C1193      C1194   1.394       .  A
C1194      S1196   1.804       .  S
S1195      H1198   1.407       .  S
S1196      H1613   1.397       .  S
H1197      S1612   1.397       .  S
C1201      C1202   1.391       .  A
C1201      C1206   1.412       .  A
C1202      H1211   1.084       .  S
C1202      C1203   1.392       .  A
C1203      C1204   1.417       .  A
C1203      S1207   1.769       .  S
C1204      C1205   1.403       .  A
C1205      H1212   1.084       .  S
C1205      C1206   1.395       .  A
C1206      S1208   1.795       .  S
S1207      H1210   1.403       .  S
S1208      H1209   1.401       .  S
C1213      C1214   1.406       .  A
C1213      C1218   1.392       .  A
C1214      H1223   1.084       .  S
C1214      C1215   1.405       .  A
C1215      C1216   1.420       .  A
C1215      S1219   1.802       .  S
C1216      C1217   1.412       .  A
C1217      H1224   1.081       .  S
C1217      C1218   1.402       .  A
C1218      S1220   1.783       .  S
S1219      H1222   1.406       .  S
S1220      H1221   1.405   1_554  S
C1225      C1226   1.402       .  A
C1225      C1230   1.397       .  A
C1226      H1235   1.084       .  S
C1226      C1227   1.399       .  A
C1227      C1228   1.420       .  A
C1227      S1231   1.797       .  S
C1228      C1229   1.410       .  A
C1229      H1236   1.082       .  S
C1229      C1230   1.404       .  A
C1230      S1232   1.784       .  S
S1231      H1234   1.405       .  S
S1232      H1233   1.404   1_556  S
C1237      C1238   1.397       .  A
C1237      C1242   1.410       .  A
C1238      H1247   1.084       .  S
C1238      C1239   1.395       .  A
C1239      C1240   1.412       .  A
C1239      S1243   1.769       .  S
C1240      C1241   1.404       .  A
C1241      H1248   1.082       .  S
C1241      C1242   1.391       .  A
C1242      S1244   1.796       .  S
S1243      H1246   1.407       .  S
S1244      H1245   1.399       .  S
C1249      C1359   1.537   1_545  S
C1249      C1415   1.541       .  S
C1250      C1251   1.349   1_554  D
C1250      C1617   1.480       .  S
C1251      C1641   1.491       .  S
C1252      C1271   1.526       .  S
C1252      C1392   1.537       .  S
C1253      C1296   1.539       .  S
C1254      C1255   1.352   1_556  D
C1254      C1593   1.492       .  S
C1255      C1572   1.478       .  S
C1256      N1274   1.358       .  A
C1256      C1293   1.441       .  S
C1256      C1608   1.482       .  S
N1257      N1274   1.331       .  A
N1257      N1279   1.316       .  A
N1257     Co1294   2.120       .  S
C1258      N1283   1.349       .  A
C1258      C1296   1.475       .  S
C1258      H1303   1.081       .  S
H1259      C1300   1.073       .  S
C1260      N1284   1.331       .  A
C1260      C1264   1.448       .  S
C1260      H1289   1.079       .  S
Co1261     N1279   2.044       .  S
Co1261     N1269   2.117       .  S
Co1261     N1301   2.123       .  S
Co1261     N1277   2.095       .  S
Co1261    Cl1305   2.469       .  S
N1262      C1300   1.333       .  A
N1262      N1269   1.314       .  A
N1262     Co1263   2.050       .  S
Co1263     N1266   2.115       .  S
Co1263     N1283   2.126       .  S
Co1263     N1270   2.085       .  S
Co1263    Cl1305   2.458       .  S
C1264      N1302   1.355       .  A
C1264      C1596   1.478       .  S
N1265      N1272   1.314       .  A
N1265      N1295   1.330       .  A
N1265     Co1298   2.113       .  S
N1266      N1284   1.315       .  A
N1266      N1302   1.328       .  A
N1267      C1296   1.353       .  A
N1267      N1277   1.327       .  A
H1268      C1293   1.080       .  S
N1269      N1290   1.329       .  A
N1270      N1288   1.325       .  A
N1270      N1275   1.325       .  A
C1271      N1275   1.350       .  A
C1271      C1299   1.472       .  S
N1272      C1287   1.329       .  A
N1272     Co1294   2.036       .  S
C1273      N1301   1.346       .  A
C1273      C1276   1.478       .  S
C1273      H1307   1.082       .  S
C1276      N1297   1.350       .  A
N1277      N1283   1.325       .  A
N1278      C1304   1.346       .  A
N1278      N1280   1.325       .  A
N1278     Co1294   2.120       .  S
N1279      C1293   1.333       .  A
N1280      N1308   1.325       .  A
N1280     Co1298   2.081       .  S
H1281      C1304   1.081       .  S
H1282      C1299   1.082       .  S
N1284     Co1298   2.041       .  S
N1285      N1297   1.328       .  A
N1285      N1301   1.325       .  A
N1285     Co1294   2.091       .  S
C1286      N1290   1.356       .  A
C1286      C1300   1.451       .  S
C1286      C1644   1.490       .  S
C1287      C1306   1.447       .  S
C1287      H1291   1.080       .  S
N1288      C1299   1.345       .  A
N1288     Co1298   2.115       .  S
C1292      N1308   1.348       .  A
C1292      C1304   1.475       .  S
Co1294    Cl1305   2.453       .  S
N1295      C1306   1.358       .  A
Co1298    Cl1305   2.464       .  S
C1306      C1656   1.484       .  S
C1309      C1472   1.531       .  S
C1309      N1327   1.362       .  A
C1309      C1346   1.457       .  S
N1310      N1327   1.333       .  A
N1310      N1332   1.324       .  A
N1310     Co1347   2.130       .  S
C1311      N1336   1.343       .  A
C1311      C1349   1.459       .  S
C1311      H1356   1.080       .  S
H1312      C1353   1.082       .  S
C1313      N1337   1.340       .  A
C1313      C1317   1.464       .  S
C1313      H1342   1.081       .  S
Co1314     N1332   2.073       .  S
Co1314     N1322   2.098       .  S
Co1314     N1354   2.081       .  S
Co1314     N1330   2.058       .  S
Co1314    Cl1358   2.461       .  S
N1315      C1353   1.338       .  A
N1315      N1322   1.325       .  A
N1315     Co1316   2.095       .  S
Co1316     N1319   2.129       .  S
Co1316     N1336   2.089       .  S
Co1316     N1323   2.080       .  S
Co1316    Cl1358   2.458       .  S
C1317      N1355   1.360       .  A
N1318      N1325   1.324       .  A
N1318      N1348   1.333       .  A
N1318     Co1351   2.120       .  S
N1319      N1337   1.325       .  A
N1319      N1355   1.333       .  A
N1320      C1349   1.341       .  A
N1320      N1330   1.319       .  A
H1321      C1346   1.081       .  S
N1322      N1343   1.329       .  A
N1323      N1341   1.316       .  A
N1323      N1328   1.324       .  A
C1324      N1328   1.348       .  A
C1324      C1352   1.460       .  S
C1324      C1632   1.487       .  S
N1325      C1340   1.340       .  A
N1325     Co1347   2.099       .  S
C1326      N1354   1.340       .  A
C1326      C1329   1.466       .  S
C1326      H1360   1.079       .  S
C1329      N1350   1.347       .  A
C1329      C1620   1.486       .  S
N1330      N1336   1.318       .  A
N1331      C1357   1.349       .  A
N1331      N1333   1.319       .  A
N1331     Co1347   2.107       .  S
N1332      C1346   1.335       .  A
N1333      N1361   1.322       .  A
N1333     Co1351   2.072       .  S
H1334      C1357   1.079       .  S
H1335      C1352   1.079       .  S
N1337     Co1351   2.092       .  S
N1338      N1350   1.320       .  A
N1338      N1354   1.315       .  A
N1338     Co1347   2.069       .  S
C1339      N1343   1.354       .  A
C1339      C1353   1.466       .  S
C1340      C1359   1.465       .  S
C1340      H1344   1.082       .  S
N1341      C1352   1.344       .  A
N1341     Co1351   2.093       .  S
C1345      N1361   1.340       .  A
C1345      C1357   1.464       .  S
C1345      C1584   1.483       .  S
Co1347    Cl1358   2.459       .  S
N1348      C1359   1.360       .  A
C1349      C1569   1.464       .  S
Co1351    Cl1358   2.470       .  S
C1362      C1399   1.473       .  S
N1363      N1380   1.326       .  A
N1363     Co1400   2.093       .  S
C1364      N1389   1.338       .  A
C1364      H1409   1.079       .  S
H1365      C1406   1.081       .  S
C1366      N1390   1.343       .  A
C1366      H1395   1.082       .  S
Co1367     N1385   2.122       .  S
Co1367     N1375   2.151       .  S
Co1367     N1407   2.119       .  S
Co1367     N1383   2.089       .  S
N1368      C1406   1.342       .  A
N1368     Co1369   2.077       .  S
Co1369     N1372   2.092       .  S
Co1369     N1389   2.074       .  S
Co1369     N1376   2.061       .  S
C1370      N1408   1.354       .  A
N1371      N1401   1.327       .  A
N1371     Co1404   2.118       .  S
N1372      N1408   1.326       .  A
N1373      C1402   1.354       .  A
N1373      N1383   1.325       .  A
H1374      C1399   1.082       .  S
N1375      N1396   1.332       .  A
N1376      N1381   1.322       .  A
C1377      C1405   1.462       .  S
C1377      C1557   1.480       .  S
N1378      C1393   1.342       .  A
N1378     Co1400   2.084       .  S
C1379      N1407   1.350       .  A
C1379      H1413   1.075       .  S
C1382      N1403   1.341       .  A
C1382      C1548   1.489       .  S
N1384      C1410   1.340       .  A
N1384     Co1400   2.070       .  S
N1385      C1399   1.347       .  A
N1386      N1414   1.316       .  A
N1386     Co1404   2.057       .  S
H1387      C1410   1.080       .  S
H1388      C1405   1.074       .  S
N1390     Co1404   2.097       .  S
N1391      N1403   1.321       .  A
N1391     Co1400   2.060       .  S
C1392      N1396   1.364       .  A
C1393      H1397   1.081       .  S
N1394      C1405   1.346       .  A
N1394     Co1404   2.109       .  S
C1398      C1410   1.461       .  S
C1398      C1521   1.476       .  S
Co1400    Cl1411   2.466       .  S
N1401      C1412   1.358   1_565  A
C1402      C1533   1.491       .  S
C1415      C1452   1.463   1_545  S
N1416      N1433   1.334       .  A
N1416     Co1453   2.141       .  S
C1417      N1442   1.346       .  A
C1417      H1462   1.078       .  S
H1418      C1459   1.082       .  S
C1419      N1443   1.336       .  A
C1419      C1423   1.463       .  S
C1419      H1448   1.081       .  S
Co1420     N1438   2.084       .  S
Co1420     N1428   2.108       .  S
Co1420     N1460   2.081       .  S
Co1420     N1436   2.065       .  S
N1421      C1459   1.338       .  A
N1421     Co1422   2.088       .  S
Co1422     N1425   2.112       .  S
Co1422     N1442   2.099       .  S
Co1422     N1429   2.060       .  S
N1424      N1454   1.331       .  A
N1424     Co1457   2.109       .  S
N1425      N1461   1.332       .  A
N1426      C1455   1.339       .  A
N1426      N1436   1.320       .  A
H1427      C1452   1.081       .  S
N1428      N1449   1.330       .  A
N1429      N1434   1.317       .  A
C1430      C1458   1.467       .  S
C1430      C1509   1.486       .  S
N1431      C1446   1.341       .  A
N1431     Co1453   2.106       .  S
C1432      N1460   1.340       .  A
C1432      H1466   1.079       .  S
C1435      N1456   1.350       .  A
C1435      C1497   1.490       .  S
N1437      C1463   1.345       .  A
N1437     Co1453   2.102       .  S
N1438      C1452   1.339       .  A
N1439      N1467   1.322       .  A
N1439     Co1457   2.065       .  S
H1440      C1463   1.074       .  S
H1441      C1458   1.073       .  S
N1443     Co1457   2.089       .  S
N1444      N1456   1.325       .  A
N1444     Co1453   2.087       .  S
C1445      C1459   1.461   1_455  S
C1446      H1450   1.082       .  S
N1447      C1458   1.339       .  A
N1447     Co1457   2.074       .  S
C1451      C1463   1.465       .  S
C1451      C1476   1.484       .  S
Co1453    Cl1464   2.452       .  S
N1454      C1465   1.357   1_655  A
C1455      C1488   1.483       .  S
C1468      C1469   1.367       .  D
C1468      C1545   1.513       .  S
C1468      C1560   1.490       .  S
C1469      C1473   1.508       .  S
C1469      C1485   1.499       .  S
C1470      C1471   1.355       .  D
C1470      C1524   1.483       .  S
C1470      C1536   1.498       .  S
C1471      C1500   1.495       .  S
C1471      C1512   1.486       .  S
C1473      C1474   1.409       .  A
C1473      C1478   1.402       .  A
C1475      S1479   1.805       .  S
C1476      C1477   1.408       .  A
C1477      H1484   1.083       .  S
C1477      C1478   1.406       .  A
C1478      S1480   1.798       .  S
S1479      H1482   1.400       .  S
S1480      H1481   1.408       .  S
C1485      C1486   1.404       .  A
C1486      H1495   1.084       .  S
C1486      C1487   1.400       .  A
C1487      C1488   1.415       .  A
C1487      S1491   1.801       .  S
C1489      H1496   1.084       .  S
C1489      C1490   1.402       .  A
C1490      S1492   1.793       .  S
S1491      H1494   1.402       .  S
S1492      H1493   1.398       .  S
C1497      C1502   1.413       .  A
C1498      H1507   1.081       .  S
C1498      C1499   1.401       .  A
C1499      C1500   1.398       .  A
C1499      S1503   1.791       .  S
C1501      H1508   1.073       .  S
C1501      C1502   1.398       .  A
C1502      S1504   1.801       .  S
S1503      H1506   1.402       .  S
S1504      H1505   1.407       .  S
C1509      C1514   1.416       .  A
C1510      H1519   1.083       .  S
C1510      C1511   1.390       .  A
C1511      C1512   1.414       .  A
C1511      S1515   1.795       .  S
C1513      H1520   1.084       .  S
C1513      C1514   1.396       .  A
C1514      S1516   1.782       .  S
S1515      H1518   1.394       .  S
S1516      H1517   1.402       .  S
C1521      C1522   1.404       .  A
C1522      H1531   1.081       .  S
C1522      C1523   1.395       .  A
C1523      S1527   1.803       .  S
C1524      C1525   1.398       .  A
C1525      H1532   1.077       .  S
C1525      C1526   1.394       .  A
C1526      S1528   1.808       .  S
S1527      H1530   1.389       .  S
S1528      H1529   1.406       .  S
C1533      C1538   1.409       .  A
C1534      H1543   1.080       .  S
C1534      C1535   1.401       .  A
C1535      C1536   1.418       .  A
C1535      S1539   1.800       .  S
C1537      H1544   1.078       .  S
C1537      C1538   1.399       .  A
C1538      S1540   1.789       .  S
S1539      H1542   1.394       .  S
S1540      H1541   1.393       .  S
C1545      C1550   1.407       .  A
C1546      H1555   1.084       .  S
C1546      C1547   1.409       .  A
C1547      S1551   1.799       .  S
C1548      C1549   1.405       .  A
C1549      H1556   1.083       .  S
C1549      C1550   1.406       .  A
C1550      S1552   1.797       .  S
S1551      H1554   1.402       .  S
S1552      H1553   1.409       .  S
C1557      C1562   1.411       .  A
C1558      H1567   1.084       .  S
C1558      C1559   1.399       .  A
C1559      S1563   1.797       .  S
C1560      C1561   1.403       .  A
C1561      H1568   1.081       .  S
C1561      C1562   1.402       .  A
C1562      S1564   1.795       .  S
S1563      H1566   1.402       .  S
S1564      H1565   1.407       .  S
C1569      C1570   1.394       .  A
C1569      C1574   1.412       .  A
C1570      H1579   1.084       .  S
C1570      C1571   1.392       .  A
C1571      C1572   1.418       .  A
C1572      C1573   1.397       .  A
C1573      H1580   1.083       .  S
C1573      C1574   1.395       .  A
C1574      S1576   1.787       .  S
S1575      H1578   1.397       .  S
S1576      H1577   1.404       .  S
C1581      C1582   1.401       .  A
C1581      C1586   1.419       .  A
C1582      H1591   1.080       .  S
C1582      C1583   1.403       .  A
C1583      C1584   1.414       .  A
C1583      S1587   1.790       .  S
C1584      C1585   1.400       .  A
C1585      H1592   1.084       .  S
C1585      C1586   1.398       .  A
C1586      S1588   1.802   1_565  S
S1587      H1590   1.405       .  S
S1588      H1589   1.403       .  S
C1593      C1594   1.406       .  A
C1593      C1598   1.404       .  A
C1594      H1603   1.083       .  S
C1594      C1595   1.398       .  A
C1595      C1596   1.418       .  A
C1595      S1599   1.808       .  S
C1596      C1597   1.408       .  A
C1597      H1604   1.083       .  S
C1597      C1598   1.403       .  A
C1598      S1600   1.792       .  S
S1599      H1602   1.402       .  S
S1600      H1601   1.402       .  S
C1605      C1606   1.405       .  A
C1605      C1610   1.417       .  A
C1606      H1615   1.081       .  S
C1606      C1607   1.402       .  A
C1607      C1608   1.411       .  A
C1607      S1611   1.786       .  S
C1608      C1609   1.400       .  A
C1609      H1616   1.083       .  S
C1609      C1610   1.394       .  A
C1610      S1612   1.804   1_565  S
S1611      H1614   1.407       .  S
C1617      C1618   1.391       .  A
C1617      C1622   1.412       .  A
C1618      H1627   1.084       .  S
C1618      C1619   1.392       .  A
C1619      C1620   1.417       .  A
C1619      S1623   1.769       .  S
C1620      C1621   1.403       .  A
C1621      H1628   1.084       .  S
C1621      C1622   1.395       .  A
C1622      S1624   1.795       .  S
S1623      H1626   1.403       .  S
S1624      H1625   1.401       .  S
C1629      C1630   1.406       .  A
C1629      C1634   1.392       .  A
C1630      H1639   1.084       .  S
C1630      C1631   1.405       .  A
C1631      C1632   1.420       .  A
C1631      S1635   1.802       .  S
C1632      C1633   1.412       .  A
C1633      H1640   1.081       .  S
C1633      C1634   1.402       .  A
C1634      S1636   1.783       .  S
S1635      H1638   1.406       .  S
S1636      H1637   1.405   1_554  S
C1641      C1642   1.402       .  A
C1641      C1646   1.397       .  A
C1642      H1651   1.084       .  S
C1642      C1643   1.399       .  A
C1643      C1644   1.420       .  A
C1643      S1647   1.797       .  S
C1644      C1645   1.410       .  A
C1645      H1652   1.082       .  S
C1645      C1646   1.404       .  A
C1646      S1648   1.784       .  S
S1647      H1650   1.405       .  S
S1648      H1649   1.404   1_556  S
C1653      C1654   1.397       .  A
C1653      C1658   1.410       .  A
C1654      H1663   1.084       .  S
C1654      C1655   1.395       .  A
C1655      C1656   1.412       .  A
C1655      S1659   1.769       .  S
C1656      C1657   1.404       .  A
C1657      H1664   1.082       .  S
C1657      C1658   1.391       .  A
C1658      S1660   1.796       .  S
S1659      H1662   1.407       .  S
S1660      H1661   1.399       .  S
