geometry optimzed in LAMMPS
_audit_creation_date              2020-12-01 
_audit_creation_method            'lammps2cif' 
_symmetry_space_group_name_H-M    'P1' 
_symmetry_Int_Tables_number       1 
_symmetry_cell_setting            triclinic 
loop_ 
_symmetry_equiv_pos_as_xyz 
  x,y,z 
_cell_length_a                    41.72583577 
_cell_length_b                    41.898940582582775 
_cell_length_c                    34.62773739289527 
_cell_angle_alpha                 89.98359549041326 
_cell_angle_beta                  90.13345051180197 
_cell_angle_gamma                 82.99666121312524 
loop_ 
_atom_site_label 
_atom_site_type_symbol 
_atom_site_fract_x 
_atom_site_fract_y 
_atom_site_fract_z 
_atom_site_charge 
C1          C  0.10916708  0.98381958  0.08111199     0.43400
N2          N  0.05919745  0.48748829  0.06730674     0.02300
C3          C  0.49433324  0.42751637  0.40489906    -0.05600
H4          H  0.06272641  0.02316601  0.37642490     0.07800
C5          C  0.47560620  0.09476904  0.45527920    -0.06000
Co6        Co  0.05039565  0.45395235  0.49608745     0.74200
N7          N  0.05155535  0.49744608  0.42780538    -0.25100
Co8        Co  0.50153889  0.99817075  0.42969198     0.74100
C9          C  0.98860274  0.09934909  0.41758449     0.43500
N10         N  0.49097194  0.06236585  0.04712106     0.01900
N11         N  0.49538779  0.04849210  0.43246799     0.02000
N12         N  0.02671286  0.40040630  0.44751324    -0.46000
H13         H  0.12348870  0.45200134  0.02809186     0.07700
N14         N  0.06995790  0.48031309  0.45325667     0.02300
N15         N  0.45149596  0.99943051  0.43358652     0.02000
C16         C  0.40172241  0.50103147  0.41845031     0.43600
N17         N  0.50711551  0.04442242  0.07367756    -0.24600
C18         C  0.02129567  0.39588374  0.04503209    -0.05500
N19         N  0.07959675  0.99648870  0.09318436    -0.45700
N20         N  0.43206655  0.49101420  0.40643104    -0.45900
C21         C  0.50352646  0.39568078  0.08165019     0.43400
N22         N  0.02524520  0.43175127  0.45375152     0.02300
N23         N  0.45819743  0.00060775  0.07362321    -0.24600
N24         N  0.07359564  0.46972411  0.03934194    -0.25100
N25         N  0.44126401  0.01835251  0.04748388     0.01900
H26         H  0.44464954  0.47662043  0.12505656     0.07800
H27         H  0.38524870  0.02960438  0.47293774     0.07800
N28         N  0.00643533  0.44897672  0.42874130    -0.25200
N29         N  0.47982763  0.06310232  0.46187220    -0.24800
N30         N  0.00949967  0.44375711  0.06842576     0.02300
C31         C  0.10371280  0.99792168  0.41434316     0.43700
C32         C  0.01730728  0.06361341  0.10112608    -0.06000
N33         N  0.43577759  0.01485993  0.46237291    -0.24800
H34         H  0.46266731  0.11240015  0.47411513     0.07800
N35         N  0.10113359  0.47954369  0.44597821    -0.46000
H36         H  0.02890784  0.05557475  0.12795669     0.07800
C37         C  0.40542168  0.50417083  0.08651206     0.43500
C38         C  0.10552086  0.46606936  0.04555310    -0.05500
Co39       Co  0.00894610  0.49363202  0.07163083     0.73800
N40         N  0.48901955  0.09344491  0.05477097    -0.45700
C41         C  0.50749995  0.39551097  0.41794638     0.43800
N42         N  0.49732755  0.42611448  0.09481315    -0.45700
Co43       Co  0.46419992  0.04233207  0.00479397     0.73900
C44         C  0.40402392  0.01674343  0.45545704    -0.06000
C45         C  0.07080391  0.00951199  0.40186232    -0.05600
N46         N  0.02356084  0.42718754  0.03935624    -0.25100
N47         N  0.00052855  0.06959890  0.40512038    -0.45900
H48         H  0.47860459  0.43447027  0.38068261     0.07800
C49         C  0.43757109  0.49051977  0.09944364    -0.06000
Cl50       Cl  0.00600823  0.99646298  0.00054553    -0.49000
C51         C  0.00549148  0.09644324  0.08843819     0.43500
H52         H  0.03172835  0.37632818  0.02690543     0.07700
N53         N  0.40985575  0.02145616  0.05443181    -0.45700
C54         C  0.99529337  0.27771618  0.16847838     0.04000
C55         C  0.99107604  0.27803167  0.20870076    -0.12100
C56         C  0.99372396  0.24923236  0.23037391     0.01500
C57         C  0.99896425  0.21987539  0.20981550    -0.10600
C58         C  0.00064465  0.21921961  0.16939461     0.04000
C59         C  0.99941357  0.24819013  0.14886985    -0.10100
H60         H  0.98592972  0.30119159  0.22244638     0.09600
H61         H  0.00188332  0.19700098  0.22450305     0.07200
H62         H  0.00185760  0.24771850  0.11771703     0.07000
C63         C  0.99505650  0.27785183  0.33587927     0.04000
C64         C  0.99219680  0.24921753  0.35577545    -0.12100
C65         C  0.98879255  0.22095777  0.33536421     0.01500
C66         C  0.98706513  0.22179648  0.29492583    -0.10600
C67         C  0.99183235  0.24973541  0.27393972     0.04000
C68         C  0.99582287  0.27775623  0.29532304    -0.10100
H69         H  0.99314861  0.24883124  0.38705375     0.09600
H70         H  0.98234867  0.20002737  0.28050574     0.07200
H71         H  0.00011575  0.29978518  0.28118819     0.07000
C72         C  0.22700116  0.49513009  0.16564998     0.04000
C73         C  0.25557256  0.49846934  0.14598163    -0.12100
C74         C  0.28369266  0.50193651  0.16663606     0.01500
C75         C  0.28293437  0.50329036  0.20706474    -0.11100
C76         C  0.25456820  0.49895805  0.22775527     0.04000
C77         C  0.22673765  0.49442057  0.20607422    -0.10100
H78         H  0.25601937  0.49792441  0.11468875     0.09600
H79         H  0.30488123  0.50766524  0.22157671     0.07200
H80         H  0.20455082  0.48991002  0.21981613     0.07000
C81         C  0.22432412  0.50035392  0.33240571     0.04000
C82         C  0.25335255  0.49736120  0.35305336    -0.12100
C83         C  0.28274872  0.49513189  0.33335723     0.01500
C84         C  0.28310788  0.49460904  0.29292978    -0.10600
C85         C  0.25411267  0.49859821  0.27130403     0.04000
C86         C  0.22469427  0.50207638  0.29201619    -0.10100
H87         H  0.25306491  0.49704264  0.38434897     0.09600
H88         H  0.30642555  0.49134105  0.27913119     0.07200
H89         H  0.20164208  0.50608245  0.27751524     0.07000
C90         C  0.98834432  0.18973823  0.35598355    -0.04400
C91         C  0.46292706  0.18392053  0.37954698    -0.01500
C92         C  0.46216694  0.15403564  0.39813231     0.03400
C93         C  0.98753268  0.12982248  0.39460853    -0.04400
C94         C  0.01240411  0.13422380  0.36802900    -0.01500
C95         C  0.01293088  0.16404523  0.34915487     0.03400
C96         C  0.43652121  0.20937183  0.38510594     0.38100
C97         C  0.03740842  0.10810320  0.35926289     0.38100
C98         C  0.03933091  0.16847967  0.32319529     0.36500
C99         C  0.43331556  0.14869587  0.41928855     0.36500
N100        N  0.06031532  0.17198289  0.30242681    -0.38300
N101        N  0.41000194  0.14474662  0.43574266    -0.38300
N102        N  0.05713893  0.08731413  0.35132391    -0.37800
N103        N  0.41519899  0.22931483  0.38996927    -0.37800
C104        C  0.99831618  0.30804321  0.35755079    -0.04400
C105        C  0.02733386  0.32219976  0.35567826    -0.01500
C106        C  0.02997075  0.35141058  0.37498871     0.03400
C107        C  0.00415448  0.36602184  0.39754676    -0.04400
C108        C  0.47670573  0.34958533  0.40190321    -0.01500
C109        C  0.47328438  0.32142509  0.38073808     0.03400
C110        C  0.05459585  0.30661533  0.33404625     0.38100
C111        C  0.45148033  0.36267535  0.42824582     0.38100
C112        C  0.44260167  0.30853896  0.38108998     0.36500
C113        C  0.05897591  0.36690721  0.37079402     0.36500
N114        N  0.41771372  0.29903163  0.38112610    -0.38300
N115        N  0.08201956  0.37939067  0.36710720    -0.38300
N116        N  0.43149855  0.37286735  0.44957895    -0.37800
N117        N  0.07633954  0.29415380  0.31680905    -0.37800
C118        C  0.00232426  0.18783891  0.14860740    -0.04400
C119        C  0.47476095  0.18055592  0.12704358    -0.01500
C120        C  0.47572427  0.15072792  0.10787804     0.03400
C121        C  0.00431444  0.12745680  0.11028851    -0.04400
C122        C  0.03103033  0.13490232  0.13242086    -0.01500
C123        C  0.03012212  0.16505160  0.15111088     0.03400
C124        C  0.44494057  0.20235433  0.12758082     0.38100
C125        C  0.05970083  0.11184672  0.13605571     0.38100
C126        C  0.05788361  0.17269156  0.17299827     0.36500
C127        C  0.44696121  0.14327030  0.08779175     0.36500
N128        N  0.07996698  0.17877062  0.19058071    -0.38300
N129        N  0.42396889  0.13748988  0.07180238    -0.38300
N130        N  0.08263461  0.09360076  0.13983528    -0.37800
N131        N  0.42086113  0.21925547  0.12834610    -0.37800
C132        C  0.99654263  0.30854589  0.14711388    -0.04400
C133        C  0.02079647  0.32834841  0.15594442    -0.01500
C134        C  0.02259812  0.35700606  0.13506856     0.03400
C135        C  0.00079049  0.36568900  0.10461570    -0.04400
C136        C  0.47546660  0.34762222  0.09677285    -0.01500
C137        C  0.47298784  0.31936935  0.11824869     0.03400
C138        C  0.04432720  0.31907516  0.18608766     0.38100
C139        C  0.45215325  0.35746942  0.06661490     0.38100
C140        C  0.44576497  0.30161334  0.11181060     0.36500
C141        C  0.04724617  0.37740268  0.14448878     0.36500
N142        N  0.42363804  0.28798407  0.10668518    -0.38300
N143        N  0.06674238  0.39385048  0.15196023    -0.38300
N144        N  0.43352262  0.36534674  0.04259963    -0.37800
N145        N  0.06302184  0.31183178  0.21024813    -0.37800
C146        C  0.31334914  0.49630190  0.35492637    -0.04400
C147        C  0.33584379  0.46853556  0.35913504    -0.01500
C148        C  0.36533220  0.47034200  0.37861210     0.03400
C149        C  0.37199519  0.49970188  0.39507358    -0.04400
C150        C  0.34969060  0.02750726  0.38939690    -0.01500
C151        C  0.32058409  0.02580794  0.36920956     0.03400
C152        C  0.32845409  0.43805740  0.34379064     0.38100
C153        C  0.35759538  0.05854037  0.40237399     0.38100
C154        C  0.29851409  0.05482649  0.36232468     0.36500
C155        C  0.38879229  0.44195133  0.38158019     0.36500
N156        N  0.28086665  0.07784806  0.35649722    -0.38300
N157        N  0.40768238  0.41937661  0.38334337    -0.38300
N158        N  0.36386105  0.08339553  0.41240027    -0.37800
N159        N  0.32255891  0.41370493  0.33164921    -0.37800
C160        C  0.13422014  0.49878952  0.39277536    -0.04400
C161        C  0.15325462  0.46975347  0.38257495    -0.01500
C162        C  0.18256718  0.47042974  0.36266415     0.03400
C163        C  0.19324941  0.50007233  0.35306509    -0.04400
C164        C  0.17433352  0.02902159  0.36275536    -0.01500
C165        C  0.14504139  0.02846119  0.38299352     0.03400
C166        C  0.14277691  0.43902549  0.39246998     0.38100
C167        C  0.18539677  0.05943598  0.35268856     0.38100
C168        C  0.12724189  0.05831872  0.39619770     0.36500
C169        C  0.20173671  0.44054621  0.35174871     0.36500
N170        N  0.11343622  0.08218360  0.40725713    -0.38300
N171        N  0.21701079  0.41674382  0.34296640    -0.38300
N172        N  0.19428668  0.08365154  0.34451706    -0.37800
N173        N  0.13467680  0.41447613  0.40069357    -0.37800
C174        C  0.31465267  0.50257949  0.14588935    -0.04400
C175        C  0.32243020  0.03142794  0.12891331    -0.01500
C176        C  0.35221041  0.03204943  0.10988968     0.03400
C177        C  0.37411933  0.50350832  0.10688390    -0.04400
C178        C  0.36606797  0.47458228  0.12330605    -0.01500
C179        C  0.33645775  0.47420126  0.14279397     0.03400
C180        C  0.29974747  0.06046688  0.13171181     0.38100
C181        C  0.38757987  0.44485733  0.11911341     0.38100
C182        C  0.32801670  0.44442573  0.15912400     0.36500
C183        C  0.36036239  0.06229501  0.09466355     0.36500
N184        N  0.32109726  0.42075744  0.17211981    -0.38300
N185        N  0.36685368  0.08644750  0.08258594    -0.38300
N186        N  0.40461857  0.42105814  0.11588120    -0.37800
N187        N  0.28160437  0.08359400  0.13388779    -0.37800
C188        C  0.19701609  0.49211605  0.14372336    -0.04400
C189        C  0.17927751  0.01965789  0.12677596    -0.01500
C190        C  0.15074860  0.01678126  0.10591302     0.03400
C191        C  0.13986257  0.48657597  0.10192965    -0.04400
C192        C  0.15764190  0.45895349  0.11816595    -0.01500
C193        C  0.18606317  0.46177694  0.13930932     0.03400
C194        C  0.19018812  0.05097836  0.13176495     0.38100
C195        C  0.14659584  0.42767393  0.11339675     0.38100
C196        C  0.20408388  0.43352872  0.15660347     0.36500
C197        C  0.13372507  0.04463107  0.08669907     0.36500
N198        N  0.21847920  0.41109793  0.17059029    -0.38300
N199        N  0.12031139  0.06662189  0.07076457    -0.38300
N200        N  0.13791678  0.40267658  0.10942471    -0.37800
N201        N  0.19885912  0.07596064  0.13589869    -0.37800
C202        C  0.10890022  0.99535950  0.57957009     0.43400
N203        N  0.05888238  0.49292687  0.56710307     0.02300
C204        C  0.49127021  0.43078869  0.90202740    -0.05600
H205        H  0.06851440  0.01971248  0.88006654     0.07800
C206        C  0.48604567  0.09674449  0.95588517    -0.06000
Co207      Co  0.04750183  0.44959802  0.99635967     0.74200
N208        N  0.05396004  0.49270513  0.92866358    -0.25100
Co209      Co  0.50336407  0.99944323  0.92971979     0.74100
C210        C  0.00095128  0.09944331  0.91727232     0.43500
N211        N  0.48436894  0.06039681  0.54730044     0.01900
N212        N  0.50219212  0.04954847  0.93284380     0.02000
N213        N  0.01957920  0.39935389  0.94663575    -0.46000
H214        H  0.12505717  0.46478430  0.52583222     0.07700
N215        N  0.07059240  0.47344499  0.95371193     0.02300
N216        N  0.45315908  0.00564803  0.93288734     0.02000
C217        C  0.40279796  0.50999129  0.91736084     0.43600
N218        N  0.50240286  0.04370085  0.57336145    -0.24600
C219        C  0.03192507  0.39685704  0.54552615    -0.05500
N220        N  0.07859508  0.00377748  0.59287816    -0.45700
N221        N  0.43267610  0.49799513  0.90561394    -0.45900
C222        C  0.51398779  0.39351928  0.58217092     0.43400
N223        N  0.02042495  0.43033592  0.95358044     0.02300
N224        N  0.45875951  0.99459297  0.57400304    -0.24600
N225        N  0.07443993  0.47712883  0.53842179    -0.25100
N226        N  0.44026658  0.01082142  0.54792668     0.01900
H227        H  0.44781396  0.46946352  0.62603427     0.07800
H228        H  0.38844461  0.03997844  0.97203937     0.07800
N229        N  0.00410556  0.44910119  0.92782957    -0.25200
N230        N  0.48765063  0.06518600  0.96222778    -0.24800
N231        N  0.01450228  0.44374883  0.56869612     0.02300
C232        C  0.10664433  0.98926005  0.91721937     0.43700
C233        C  0.01045958  0.06436355  0.60038269    -0.06000
N234        N  0.43837253  0.02219798  0.96151489    -0.24800
H235        H  0.47399864  0.11516607  0.97444278     0.07800
N236        N  0.10209252  0.47054247  0.94737161    -0.46000
H237        H  0.02376135  0.05737194  0.62648320     0.07800
C238        C  0.40674973  0.49371915  0.58738220     0.43500
C239        C  0.10623910  0.47707032  0.54373506    -0.05500
Co240      Co  0.00871370  0.49386624  0.57189144     0.73800
N241        N  0.48030785  0.09159428  0.55477870    -0.45700
C242        C  0.50150855  0.39798872  0.91507050     0.43800
N243        N  0.50471085  0.42351350  0.59526334    -0.45700
Co244      Co  0.45971000  0.03763652  0.50513950     0.73900
C245        C  0.40655937  0.02621546  0.95447536    -0.06000
C246        C  0.07487839  0.00403811  0.90442733    -0.05600
N247        N  0.03013357  0.42865234  0.53959648    -0.25100
N248        N  0.00998478  0.06906938  0.90460762    -0.45900
H249        H  0.47749811  0.43904223  0.87667748     0.07800
C250        C  0.43968853  0.48277481  0.60034294    -0.06000
Cl251      Cl  0.00494642  0.99609941  0.50071922    -0.49000
C252        C  0.99567060  0.09626066  0.58785489     0.43500
H253        H  0.04421046  0.37833856  0.52726622     0.07700
N254        N  0.40913844  0.01097310  0.55503704    -0.45700
C255        C  0.00192382  0.27602093  0.66522512     0.04000
C256        C  0.99947720  0.27670021  0.70570668    -0.12100
C257        C  0.99390518  0.24908433  0.72699439     0.01500
C258        C  0.99045166  0.22079684  0.70589655    -0.10600
C259        C  0.99462063  0.21947660  0.66580331     0.04000
C260        C  0.00021309  0.24707922  0.64552694    -0.10100
H261        H  0.00234005  0.29907135  0.71989838     0.09600
H262        H  0.98472516  0.19919951  0.71985172     0.07200
H263        H  0.00325555  0.24602876  0.61445558     0.07000
C264        C  0.99198926  0.27850805  0.83234047     0.04000
C265        C  0.99504153  0.24928594  0.85247659    -0.12100
C266        C  0.99679437  0.22007289  0.83236629     0.01500
C267        C  0.99639161  0.22030379  0.79188525    -0.10600
C268        C  0.99297248  0.24935246  0.77065213     0.04000
C269        C  0.98995505  0.27843715  0.79184719    -0.10100
H270        H  0.99643036  0.24924635  0.88373418     0.09600
H271        H  0.99915006  0.19726243  0.77768247     0.07200
H272        H  0.98641012  0.30150173  0.77761856     0.07000
C273        C  0.22660311  0.49619319  0.66797578     0.04000
C274        C  0.25581962  0.49386258  0.64789653    -0.12100
C275        C  0.28500984  0.49194783  0.66812360     0.01500
C276        C  0.28489140  0.49148246  0.70862799    -0.11100
C277        C  0.25559424  0.49495150  0.72968557     0.04000
C278        C  0.22646775  0.49768252  0.70835637    -0.10100
H279        H  0.25583943  0.49354597  0.61659654     0.09600
H280        H  0.30805348  0.48844949  0.72292820     0.07200
H281        H  0.20323078  0.50123114  0.72233484     0.07000
C282        C  0.22693471  0.49404928  0.83508398     0.04000
C283        C  0.25517517  0.49849263  0.85503979    -0.12100
C284        C  0.28344474  0.50162014  0.83466541     0.01500
C285        C  0.28326504  0.50145704  0.79425516    -0.10600
C286        C  0.25537482  0.49600176  0.77326346     0.04000
C287        C  0.22730708  0.49177056  0.79466522    -0.10100
H288        H  0.25517322  0.49940076  0.88632438     0.09600
H289        H  0.30527572  0.50578879  0.77998699     0.07200
H290        H  0.20535390  0.48668280  0.78071135     0.07000
C291        C  0.99799800  0.18887340  0.85355155    -0.04400
C292        C  0.47081499  0.18301184  0.87732368    -0.01500
C293        C  0.47098973  0.15329720  0.89645272     0.03400
C294        C  0.99906860  0.12924681  0.89317739    -0.04400
C295        C  0.02438781  0.13448533  0.86773121    -0.01500
C296        C  0.02407136  0.16428640  0.84842700     0.03400
C297        C  0.44257104  0.20678164  0.88012485     0.38100
C298        C  0.05058934  0.10913971  0.86067790     0.38100
C299        C  0.05086661  0.16972783  0.82362203     0.36500
C300        C  0.44201036  0.14675844  0.91660182     0.36500
N301        N  0.07215209  0.17397815  0.80366300    -0.38300
N302        N  0.41871956  0.14178007  0.93242318    -0.38300
N303        N  0.07124141  0.08885744  0.85413466    -0.37800
N304        N  0.41971699  0.22527620  0.88262252    -0.37800
C305        C  0.99363058  0.30934173  0.85338320    -0.04400
C306        C  0.02108787  0.32575570  0.84909983    -0.01500
C307        C  0.02285603  0.35510068  0.86848998     0.03400
C308        C  0.99790636  0.36756368  0.89366020    -0.04400
C309        C  0.47192823  0.35106267  0.89892338    -0.01500
C310        C  0.46940195  0.32243825  0.87818999     0.03400
C311        C  0.04792733  0.31203045  0.82540084     0.38100
C312        C  0.44696263  0.36304551  0.92615101     0.38100
C313        C  0.44008568  0.30729051  0.88085449     0.36500
C314        C  0.05031726  0.37263369  0.86239401     0.36500
N315        N  0.41623448  0.29592702  0.88287567    -0.38300
N316        N  0.07206497  0.38680629  0.85734236    -0.38300
N317        N  0.42713659  0.37241732  0.94808402    -0.37800
N318        N  0.06934463  0.30091464  0.80663212    -0.37800
C319        C  0.99482875  0.18827869  0.64539252    -0.04400
C320        C  0.46793637  0.18019412  0.62615741    -0.01500
C321        C  0.46826589  0.15035429  0.60713630     0.03400
C322        C  0.99535957  0.12789177  0.60798643    -0.04400
C323        C  0.02307512  0.13564226  0.62795090    -0.01500
C324        C  0.02276788  0.16569524  0.64641986     0.03400
C325        C  0.43867251  0.20278071  0.62670427     0.38100
C326        C  0.05236362  0.11320074  0.62910892     0.38100
C327        C  0.05135852  0.17353326  0.66654831     0.36500
C328        C  0.43903569  0.14297393  0.58809201     0.36500
N329        N  0.07409453  0.17983766  0.68264802    -0.38300
N330        N  0.41564264  0.13729441  0.57291978    -0.38300
N331        N  0.07581197  0.09540274  0.63066017    -0.37800
N332        N  0.41520401  0.22060336  0.62736322    -0.37800
C333        C  0.00584825  0.30600731  0.64338855    -0.04400
C334        C  0.03246039  0.32307935  0.65075257    -0.01500
C335        C  0.03497850  0.35236813  0.63156061     0.03400
C336        C  0.01201148  0.36387175  0.60335902    -0.04400
C337        C  0.48422553  0.34648885  0.59560221    -0.01500
C338        C  0.48077537  0.31801918  0.61609278     0.03400
C339        C  0.05761118  0.31030722  0.67754573     0.38100
C340        C  0.46049658  0.35843586  0.56672371     0.38100
C341        C  0.45232344  0.30196766  0.60982990     0.36500
C342        C  0.06081128  0.37105110  0.64156631     0.36500
N343        N  0.42945670  0.28941372  0.60484711    -0.38300
N344        N  0.08117244  0.38604084  0.65032312    -0.38300
N345        N  0.44155896  0.36799713  0.54372024    -0.37800
N346        N  0.07772542  0.30016451  0.69885840    -0.37800
C347        C  0.31399771  0.50403651  0.85562713    -0.04400
C348        C  0.33664165  0.47642886  0.86018351    -0.01500
C349        C  0.36611743  0.47859566  0.87931915     0.03400
C350        C  0.37271777  0.50825878  0.89496514    -0.04400
C351        C  0.35052820  0.03624391  0.88959569    -0.01500
C352        C  0.32122132  0.03404141  0.86996461     0.03400
C353        C  0.32938159  0.44567004  0.84547086     0.38100
C354        C  0.35831082  0.06748884  0.90189973     0.38100
C355        C  0.29852824  0.06263461  0.86344251     0.36500
C356        C  0.38947580  0.45014868  0.88304114     0.36500
N357        N  0.28043598  0.08541360  0.85804834    -0.38300
N358        N  0.40820147  0.42748685  0.88553160    -0.38300
N359        N  0.36451820  0.09250036  0.91139563    -0.37800
N360        N  0.32351274  0.42115444  0.83380807    -0.37800
C361        C  0.13781887  0.49062355  0.89696018    -0.04400
C362        C  0.15614050  0.46182746  0.88457512    -0.01500
C363        C  0.18528429  0.46291231  0.86430802     0.03400
C364        C  0.19641597  0.49271249  0.85662350    -0.04400
C365        C  0.17867925  0.02118810  0.87012993    -0.01500
C366        C  0.14955870  0.02010075  0.89043926     0.03400
C367        C  0.14483414  0.43103846  0.89213767     0.38100
C368        C  0.19016430  0.05187670  0.86236863     0.38100
C369        C  0.13242062  0.04949063  0.90593621     0.36500
C370        C  0.20394536  0.43336430  0.85144808     0.36500
N371        N  0.11910239  0.07293148  0.91876988    -0.38300
N372        N  0.21884691  0.40980504  0.84116946    -0.38300
N373        N  0.19941834  0.07628566  0.85606232    -0.37800
N374        N  0.13590830  0.40646667  0.89838288    -0.37800
C375        C  0.31598638  0.49191220  0.64692540    -0.04400
C376        C  0.32424246  0.02066037  0.63119413    -0.01500
C377        C  0.35425322  0.02129348  0.61281380     0.03400
C378        C  0.37598640  0.49294432  0.60889671    -0.04400
C379        C  0.36767207  0.46394269  0.62477810    -0.01500
C380        C  0.33773917  0.46348111  0.64373332     0.03400
C381        C  0.30183603  0.04991867  0.63377357     0.38100
C382        C  0.38936442  0.43435625  0.62075013     0.38100
C383        C  0.32874585  0.43357695  0.65895860     0.36500
C384        C  0.36321424  0.05178395  0.59926007     0.36500
N385        N  0.32129967  0.40979000  0.67099189    -0.38300
N386        N  0.37052432  0.07604992  0.58857391    -0.38300
N387        N  0.40654979  0.41063909  0.61771681    -0.37800
N388        N  0.28402993  0.07331402  0.63544180    -0.37800
C389        C  0.19581209  0.49632752  0.64652296    -0.04400
C390        C  0.18095479  0.02503773  0.62963564    -0.01500
C391        C  0.15248867  0.02474768  0.60758714     0.03400
C392        C  0.13875801  0.49557378  0.60261219    -0.04400
C393        C  0.15385229  0.46697233  0.61964984    -0.01500
C394        C  0.18185454  0.46750990  0.64233176     0.03400
C395        C  0.19488950  0.05477451  0.63508161     0.38100
C396        C  0.14123159  0.43674290  0.61278182     0.38100
C397        C  0.19624612  0.43844460  0.66157671     0.36500
C398        C  0.13860982  0.05366115  0.58778244     0.36500
N399        N  0.20752296  0.41536867  0.67728169    -0.38300
N400        N  0.12795000  0.07668655  0.57153403    -0.38300
N401        N  0.13161958  0.41251149  0.60652097    -0.37800
N402        N  0.20597700  0.07848427  0.63975599    -0.37800
C403        C  0.10950427  0.48396598  0.08084312     0.43400
N404        N  0.05885631  0.98753355  0.06752200     0.02300
C405        C  0.49451858  0.92769444  0.40473686    -0.05600
H406        H  0.06278303  0.52345851  0.37664677     0.07800
C407        C  0.47634393  0.59450602  0.45538880    -0.06000
Co408      Co  0.05065751  0.95394610  0.49621404     0.74200
N409        N  0.05162629  0.99737413  0.42780224    -0.25100
Co410      Co  0.50181711  0.49782137  0.42991424     0.74100
C411        C  0.98918525  0.59976411  0.41788046     0.43500
N412        N  0.49020065  0.56266180  0.04694910     0.01900
N413        N  0.49605325  0.54817145  0.43265039     0.02000
N414        N  0.02745395  0.90007301  0.44769664    -0.46000
H415        H  0.12307174  0.95180951  0.02838323     0.07700
N416        N  0.07009682  0.98039986  0.45333478     0.02300
N417        N  0.45172851  0.49949545  0.43369427     0.02000
C418        C  0.40150188  0.00076103  0.41835623     0.43600
N419        N  0.50635555  0.54474349  0.07350652    -0.24600
C420        C  0.02042862  0.89633142  0.04527143    -0.05500
N421        N  0.07990724  0.49648634  0.09297269    -0.45700
N422        N  0.43187219  0.99089034  0.40631477    -0.45900
C423        C  0.50317023  0.89549756  0.08183659     0.43400
N424        N  0.02579864  0.93144656  0.45385905     0.02300
N425        N  0.45780848  0.50057738  0.07333591    -0.24600
N426        N  0.07321800  0.96971239  0.03958902    -0.25100
N427        N  0.44081180  0.51829877  0.04722655     0.01900
H428        H  0.44490754  0.97670223  0.12532427     0.07800
H429        H  0.38556543  0.52994805  0.47301203     0.07800
N430        N  0.00697819  0.94852513  0.42873553    -0.25200
N431        N  0.48049363  0.56285218  0.46201376    -0.24800
N432        N  0.00867524  0.94427735  0.06847962     0.02300
C433        C  0.10367430  0.49783406  0.41441054     0.43700
C434        C  0.01717100  0.56327741  0.10124391    -0.06000
N435        N  0.43606212  0.51498519  0.46247068    -0.24800
H436        H  0.46340533  0.61216494  0.47418924     0.07800
N437        N  0.10125795  0.97972444  0.44601380    -0.46000
H438        H  0.02901933  0.55531603  0.12795852     0.07800
C439        C  0.40577191  0.00439230  0.08676422     0.43500
C440        C  0.10513623  0.96592839  0.04583706    -0.05500
Co441      Co  0.00857659  0.99414313  0.07161104     0.73800
N442        N  0.48818384  0.59374480  0.05463927    -0.45700
C443        C  0.50799257  0.89575396  0.41773244     0.43800
N444        N  0.49725856  0.92593814  0.09503134    -0.45700
Co445      Co  0.46363040  0.54243884  0.00456184     0.73900
C446        C  0.40430132  0.51701866  0.45553609    -0.06000
C447        C  0.07080052  0.50960543  0.40195941    -0.05600
N448        N  0.02281574  0.92759910  0.03953181    -0.25100
N449        N  0.00088876  0.56997628  0.40537157    -0.45900
H450        H  0.47857727  0.93451514  0.38067190     0.07800
C451        C  0.43789161  0.99065111  0.09973012    -0.06000
Cl452      Cl  0.00615529  0.49608292  0.00058232    -0.49000
C453        C  0.00503728  0.59606798  0.08864289     0.43500
H454        H  0.03090190  0.87671511  0.02726107     0.07700
N455        N  0.40941365  0.52129385  0.05420319    -0.45700
C456        C  0.99490085  0.77777983  0.16801722     0.04000
C457        C  0.99079988  0.77806741  0.20825541    -0.12100
C458        C  0.99351760  0.74926752  0.22991462     0.01500
C459        C  0.99872222  0.71991373  0.20934193    -0.10600
C460        C  0.00028940  0.71925036  0.16890671     0.04000
C461        C  0.99896347  0.74824761  0.14837519    -0.10100
H462        H  0.98568377  0.80121716  0.22203546     0.09600
H463        H  0.00170674  0.69704397  0.22404237     0.07200
H464        H  0.00130221  0.74779418  0.11721213     0.07000
C465        C  0.99526718  0.77783346  0.33543458     0.04000
C466        C  0.99238355  0.74920787  0.35531424    -0.12100
C467        C  0.98880197  0.72100221  0.33491739     0.01500
C468        C  0.98696346  0.72184487  0.29448974    -0.10600
C469        C  0.99173977  0.74977248  0.27348899     0.04000
C470        C  0.99586228  0.77777305  0.29486406    -0.10100
H471        H  0.99346747  0.74877912  0.38658820     0.09600
H472        H  0.98217078  0.70009162  0.28008745     0.07200
H473        H  0.00014166  0.79979649  0.28070693     0.07000
C474        C  0.22698764  0.99523328  0.16519517     0.04000
C475        C  0.25557320  0.99859067  0.14554360    -0.12100
C476        C  0.28369784  0.00202556  0.16623034     0.01500
C477        C  0.28291165  0.00333782  0.20666564    -0.11100
C478        C  0.25453332  0.99899405  0.22732786     0.04000
C479        C  0.22671544  0.99448888  0.20561748    -0.10100
H480        H  0.25603248  0.99806316  0.11425181     0.09600
H481        H  0.30485399  0.00768446  0.22120905     0.07200
H482        H  0.20452748  0.98995511  0.21933937     0.07000
C483        C  0.22423003  0.00020058  0.33196328     0.04000
C484        C  0.25325038  0.99717369  0.35262526    -0.12100
C485        C  0.28265429  0.99499175  0.33295305     0.01500
C486        C  0.28303463  0.99454628  0.29252506    -0.10600
C487        C  0.25405077  0.99856297  0.27087941     0.04000
C488        C  0.22461864  0.00199583  0.29157582    -0.10100
H489        H  0.25295005  0.99681075  0.38391995     0.09600
H490        H  0.30636031  0.99131762  0.27874293     0.07200
H491        H  0.20157223  0.00603669  0.27706648     0.07000
C492        C  0.98840952  0.68982237  0.35558500    -0.04400
C493        C  0.46368391  0.68368272  0.37992329    -0.01500
C494        C  0.46288500  0.65373869  0.39835131     0.03400
C495        C  0.98794146  0.63012247  0.39470822    -0.04400
C496        C  0.01271096  0.63446522  0.36796863    -0.01500
C497        C  0.01307984  0.66419723  0.34886151     0.03400
C498        C  0.43732640  0.70916352  0.38562520     0.38100
C499        C  0.03777197  0.60837568  0.35928881     0.38100
C500        C  0.03940671  0.66862320  0.32278834     0.36500
C501        C  0.43401271  0.64836704  0.41944563     0.36500
N502        N  0.06033429  0.67212717  0.30193563    -0.38300
N503        N  0.41068393  0.64439324  0.43585318    -0.38300
N504        N  0.05754092  0.58760647  0.35140504    -0.37800
N505        N  0.41606168  0.72914997  0.39058835    -0.37800
C506        C  0.99873120  0.80793430  0.35719913    -0.04400
C507        C  0.02764991  0.82223292  0.35484916    -0.01500
C508        C  0.03047279  0.85129563  0.37440177     0.03400
C509        C  0.00501717  0.86553096  0.39776091    -0.04400
C510        C  0.47713716  0.84979356  0.40182202    -0.01500
C511        C  0.47375969  0.82150624  0.38086503     0.03400
C512        C  0.05462667  0.80694721  0.33250489     0.38100
C513        C  0.45182151  0.86306438  0.42794028     0.38100
C514        C  0.44307227  0.80862625  0.38120500     0.36500
C515        C  0.05928340  0.86701912  0.36967639     0.36500
N516        N  0.41819670  0.79909136  0.38122322    -0.38300
N517        N  0.08216359  0.87968843  0.36556868    -0.38300
N518        N  0.43176960  0.87339303  0.44911000    -0.37800
N519        N  0.07614716  0.79472490  0.31470259    -0.37800
C520        C  0.00197738  0.68781310  0.14817593    -0.04400
C521        C  0.47429426  0.68078383  0.12727908    -0.01500
C522        C  0.47514651  0.65106126  0.10790463     0.03400
C523        C  0.00389534  0.62717982  0.11034392    -0.04400
C524        C  0.03072536  0.63483734  0.13211635    -0.01500
C525        C  0.02983698  0.66508666  0.15059473     0.03400
C526        C  0.44450284  0.70261289  0.12807390     0.38100
C527        C  0.05949199  0.61189249  0.13559824     0.38100
C528        C  0.05768045  0.67288696  0.17220249     0.36500
C529        C  0.44634518  0.64379234  0.08775203     0.36500
N530        N  0.07982645  0.67909473  0.18957019    -0.38300
N531        N  0.42332121  0.63816422  0.07171212    -0.38300
N532        N  0.08251004  0.59373723  0.13924035    -0.37800
N533        N  0.42043093  0.71951424  0.12905847    -0.37800
C534        C  0.99604235  0.80868389  0.14673386    -0.04400
C535        C  0.02031742  0.82848355  0.15550543    -0.01500
C536        C  0.02190125  0.85731647  0.13489066     0.03400
C537        C  0.99979905  0.86623720  0.10480246    -0.04400
C538        C  0.47518908  0.84745600  0.09707652    -0.01500
C539        C  0.47272404  0.81926457  0.11865286     0.03400
C540        C  0.04409674  0.81902381  0.18531835     0.38100
C541        C  0.45192141  0.85717828  0.06682328     0.38100
C542        C  0.44551042  0.80148826  0.11226653     0.36500
C543        C  0.04661335  0.87766432  0.14421502     0.36500
N544        N  0.42337369  0.78787245  0.10715297    -0.38300
N545        N  0.06616012  0.89407377  0.15161606    -0.38300
N546        N  0.43333715  0.86495417  0.04272370    -0.37800
N547        N  0.06298980  0.81162868  0.20921764    -0.37800
C548        C  0.31323637  0.99613589  0.35456688    -0.04400
C549        C  0.33575260  0.96837849  0.35869657    -0.01500
C550        C  0.36520966  0.97015713  0.37825448     0.03400
C551        C  0.37180997  0.99947115  0.39489608    -0.04400
C552        C  0.34989476  0.52773919  0.38950375    -0.01500
C553        C  0.32074661  0.52600633  0.36941675     0.03400
C554        C  0.32841729  0.93793762  0.34318273     0.38100
C555        C  0.35786090  0.55879864  0.40230304     0.38100
C556        C  0.29867907  0.55501804  0.36248516     0.36500
C557        C  0.38870874  0.94178927  0.38109284     0.36500
N558        N  0.28102875  0.57803153  0.35662559    -0.38300
N559        N  0.40762534  0.91922914  0.38272912    -0.38300
N560        N  0.36417591  0.58367515  0.41218112    -0.37800
N561        N  0.32256232  0.91361682  0.33090366    -0.37800
C562        C  0.13420047  0.99880620  0.39256410    -0.04400
C563        C  0.15317594  0.96973836  0.38235631    -0.01500
C564        C  0.18244798  0.97035430  0.36233368     0.03400
C565        C  0.19314662  0.99996866  0.35262873    -0.04400
C566        C  0.17439425  0.52909526  0.36321127    -0.01500
C567        C  0.14506497  0.52847452  0.38335230     0.03400
C568        C  0.14267386  0.93904324  0.39236166     0.38100
C569        C  0.18544072  0.55953865  0.35324362     0.38100
C570        C  0.12723947  0.55829373  0.39663204     0.36500
C571        C  0.20156288  0.94043923  0.35142654     0.36500
N572        N  0.11341781  0.58212567  0.40776473    -0.38300
N573        N  0.21679288  0.91661019  0.34265154    -0.38300
N574        N  0.19431453  0.58377851  0.34514847    -0.37800
N575        N  0.13454161  0.91452667  0.40067347    -0.37800
C576        C  0.31470262  0.00267660  0.14554457    -0.04400
C577        C  0.32234706  0.53132847  0.12922299    -0.01500
C578        C  0.35203795  0.53191335  0.11000328     0.03400
C579        C  0.37437636  0.00368586  0.10695855    -0.04400
C580        C  0.36629392  0.97475586  0.12334972    -0.01500
C581        C  0.33657960  0.97433321  0.14261054     0.03400
C582        C  0.29971047  0.56039143  0.13214886     0.38100
C583        C  0.38789168  0.94506509  0.11937424     0.38100
C584        C  0.32811450  0.94454834  0.15888779     0.36500
C585        C  0.36018794  0.56215430  0.09475750     0.36500
N586        N  0.32117496  0.92087153  0.17183807    -0.38300
N587        N  0.36668300  0.58630007  0.08266336    -0.38300
N588        N  0.40500002  0.92129224  0.11632453    -0.37800
N589        N  0.28160382  0.58353814  0.13441563    -0.37800
C590        C  0.19699189  0.99214986  0.14330308    -0.04400
C591        C  0.17942144  0.51965806  0.12712667    -0.01500
C592        C  0.15102190  0.51683107  0.10599309     0.03400
C593        C  0.13958960  0.98650869  0.10203745    -0.04400
C594        C  0.15749833  0.95891808  0.11817786    -0.01500
C595        C  0.18604165  0.96179162  0.13905654     0.03400
C596        C  0.19032700  0.55096118  0.13231518     0.38100
C597        C  0.14645426  0.92761874  0.11359605     0.38100
C598        C  0.20418893  0.93357256  0.15626043     0.36500
C599        C  0.13414713  0.54471590  0.08669716     0.36500
N600        N  0.21868918  0.91116558  0.17017105    -0.38300
N601        N  0.12086736  0.56674080  0.07069721    -0.38300
N602        N  0.13777548  0.90260559  0.10977725    -0.37800
N603        N  0.19899504  0.57592603  0.13661952    -0.37800
C604        C  0.10901794  0.49496128  0.57935331     0.43400
N605        N  0.05878517  0.99318882  0.56712791     0.02300
C606        C  0.49135815  0.93075801  0.90189265    -0.05600
H607        H  0.06819800  0.51988288  0.87989718     0.07800
C608        C  0.48523857  0.59696020  0.95555519    -0.06000
Co609      Co  0.04709173  0.94973578  0.99657370     0.74200
N610        N  0.05402407  0.99261864  0.92876922    -0.25100
Co611      Co  0.50305753  0.49964756  0.92952883     0.74100
C612        C  0.00012545  0.59932336  0.91761922     0.43500
N613        N  0.48488085  0.56022638  0.54736595     0.01900
N614        N  0.50159968  0.54977925  0.93260902     0.02000
N615        N  0.01915440  0.89959398  0.94686279    -0.46000
H616        H  0.12512412  0.96513779  0.52615337     0.07700
N617        N  0.07050566  0.97332017  0.95390469     0.02300
N618        N  0.45286388  0.50558402  0.93271613     0.02000
C619        C  0.40306363  0.01019404  0.91757475     0.43600
N620        N  0.50279306  0.54350401  0.57350816    -0.24600
C621        C  0.03215955  0.89679864  0.54572094    -0.05500
N622        N  0.07877588  0.50346590  0.59277236    -0.45700
N623        N  0.43291566  0.99811544  0.90581367    -0.45900
C624        C  0.51441978  0.89367108  0.58154765     0.43400
N625        N  0.02001605  0.93057226  0.95377875     0.02300
N626        N  0.45882920  0.49468488  0.57417930    -0.24600
N627        N  0.07446162  0.97739335  0.53852869    -0.25100
N628        N  0.44044223  0.51096932  0.54805141     0.01900
H629        H  0.44792031  0.96939996  0.62595701     0.07800
H630        H  0.38804555  0.53976288  0.97178329     0.07800
N631        N  0.00389267  0.94933834  0.92787753    -0.25200
N632        N  0.48697587  0.56539670  0.96196190    -0.24800
N633        N  0.01470647  0.94370976  0.56879036     0.02300
C634        C  0.10653770  0.48957896  0.91692658     0.43700
C635        C  0.01104920  0.56430518  0.60085028    -0.06000
N636        N  0.43800248  0.52211176  0.96131071    -0.24800
H637        H  0.47312066  0.61536368  0.97408103     0.07800
N638        N  0.10203444  0.97027501  0.94767410    -0.46000
H639        H  0.02425411  0.55719292  0.62698101     0.07800
C640        C  0.40670993  0.99349421  0.58739085     0.43500
C641        C  0.10623795  0.97743592  0.54395048    -0.05500
Co642      Co  0.00859752  0.99381666  0.57178596     0.73800
N643        N  0.48095100  0.59143501  0.55473912    -0.45700
C644        C  0.50143394  0.89790752  0.91486543     0.43800
N645        N  0.50497291  0.92361073  0.59469861    -0.45700
Co646      Co  0.46012032  0.53759083  0.50524614     0.73900
C647        C  0.40620330  0.52602494  0.95425354    -0.06000
C648        C  0.07469079  0.50423873  0.90424949    -0.05600
N649        N  0.03043947  0.92859456  0.53977165    -0.25100
N650        N  0.00942012  0.56900763  0.90492214    -0.45900
H651        H  0.47777505  0.93911617  0.87644595     0.07800
C652        C  0.43970766  0.98263832  0.60024669    -0.06000
Cl653      Cl  0.00496675  0.49637746  0.50083672    -0.49000
C654        C  0.99647405  0.59629984  0.58836317     0.43500
H655        H  0.04443406  0.87825118  0.52749256     0.07700
N656        N  0.40928710  0.51120191  0.55505144    -0.45700
C657        C  0.00179537  0.77619968  0.66570501     0.04000
C658        C  0.99922829  0.77686555  0.70618437    -0.12100
C659        C  0.99387182  0.74916339  0.72746800     0.01500
C660        C  0.99074446  0.72082187  0.70632747    -0.10600
C661        C  0.99500443  0.71954358  0.66625384     0.04000
C662        C  0.00037181  0.74721947  0.64599437    -0.10100
H663        H  0.00183666  0.79930294  0.72034399     0.09600
H664        H  0.98518332  0.69913764  0.72019211     0.07200
H665        H  0.00347676  0.74619258  0.61493055     0.07000
C666        C  0.99190530  0.77849583  0.83288291     0.04000
C667        C  0.99469497  0.74927064  0.85300810    -0.12100
C668        C  0.99627167  0.72007812  0.83287673     0.01500
C669        C  0.99591809  0.72033931  0.79238837    -0.10600
C670        C  0.99281378  0.74939659  0.77115028     0.04000
C671        C  0.98998223  0.77845559  0.79238409    -0.10100
H672        H  0.99602711  0.74921185  0.88426903     0.09600
H673        H  0.99848129  0.69729654  0.77822289     0.07200
H674        H  0.98665913  0.80154060  0.77820883     0.07000
C675        C  0.22657977  0.99621069  0.66832123     0.04000
C676        C  0.25579518  0.99384924  0.64821033    -0.12100
C677        C  0.28501955  0.99185491  0.66840133     0.01500
C678        C  0.28492955  0.99136263  0.70891054    -0.11100
C679        C  0.25565139  0.99486983  0.73000826     0.04000
C680        C  0.22649701  0.99765338  0.70871587    -0.10100
H681        H  0.25578779  0.99357156  0.61691031     0.09600
H682        H  0.30809882  0.98828377  0.72319813     0.07200
H683        H  0.20328153  0.00122665  0.72274763     0.07000
C684        C  0.22712429  0.99389239  0.83547667     0.04000
C685        C  0.25537150  0.99843824  0.85538028    -0.12100
C686        C  0.28360970  0.00165196  0.83496245     0.01500
C687        C  0.28337928  0.00146655  0.79454302    -0.10600
C688        C  0.25548574  0.99592199  0.77359799     0.04000
C689        C  0.22746340  0.99161076  0.79505024    -0.10100
H690        H  0.25540011  0.99935512  0.88666393     0.09600
H691        H  0.30535083  0.00585058  0.78021858     0.07200
H692        H  0.20552131  0.98646208  0.78111540     0.07000
C693        C  0.99737274  0.68885716  0.85403498    -0.04400
C694        C  0.47018704  0.68322478  0.87681720    -0.01500
C695        C  0.47031278  0.65355508  0.89604670     0.03400
C696        C  0.99831950  0.62920651  0.89364274    -0.04400
C697        C  0.02361483  0.63438817  0.86812363    -0.01500
C698        C  0.02335438  0.66418567  0.84882379     0.03400
C699        C  0.44198325  0.70704234  0.87956791     0.38100
C700        C  0.04974776  0.60898951  0.86098572     0.38100
C701        C  0.05010693  0.66951688  0.82389199     0.36500
C702        C  0.44132657  0.64711707  0.91625345     0.36500
N703        N  0.07134918  0.67366845  0.80381595    -0.38300
N704        N  0.41802739  0.64221963  0.93211471    -0.38300
N705        N  0.07034522  0.58866781  0.85438136    -0.37800
N706        N  0.41913391  0.72554446  0.88204227    -0.37800
C707        C  0.99359337  0.80932211  0.85392893    -0.04400
C708        C  0.02103629  0.82575263  0.84957274    -0.01500
C709        C  0.02273251  0.85520189  0.86876069     0.03400
C710        C  0.99773785  0.86774043  0.89382864    -0.04400
C711        C  0.47197476  0.85098243  0.89849547    -0.01500
C712        C  0.46952911  0.82239409  0.87767807     0.03400
C713        C  0.04793641  0.81193889  0.82602389     0.38100
C714        C  0.44698163  0.86284261  0.92574950     0.38100
C715        C  0.44019823  0.80725547  0.88015535     0.36500
C716        C  0.05018421  0.87273943  0.86260646     0.36500
N717        N  0.41632287  0.79592220  0.88202485    -0.38300
N718        N  0.07192785  0.88691070  0.85751634    -0.38300
N719        N  0.42714083  0.87210254  0.94771584    -0.37800
N720        N  0.06940960  0.80075553  0.80738688    -0.37800
C721        C  0.99536749  0.68833551  0.64584467    -0.04400
C722        C  0.46858690  0.68022090  0.62556185    -0.01500
C723        C  0.46889452  0.65028321  0.60678519     0.03400
C724        C  0.99605536  0.62786668  0.60863430    -0.04400
C725        C  0.02367994  0.63563724  0.62875573    -0.01500
C726        C  0.02329961  0.66574364  0.64712389     0.03400
C727        C  0.43934774  0.70284897  0.62590090     0.38100
C728        C  0.05293111  0.61315419  0.63019419     0.38100
C729        C  0.05180412  0.67363404  0.66738817     0.36500
C730        C  0.43965829  0.64284087  0.58780238     0.36500
N731        N  0.07447264  0.67998354  0.68359353    -0.38300
N732        N  0.41625815  0.63710876  0.57268994    -0.38300
N733        N  0.07634881  0.59532791  0.63197204    -0.37800
N734        N  0.41590104  0.72070705  0.62639921    -0.37800
C735        C  0.00567936  0.80620302  0.64387347    -0.04400
C736        C  0.03225699  0.82331258  0.65126759    -0.01500
C737        C  0.03485808  0.85250794  0.63190681     0.03400
C738        C  0.01199285  0.86390328  0.60354655    -0.04400
C739        C  0.48452588  0.84668305  0.59488271    -0.01500
C740        C  0.48095223  0.81825242  0.61541315     0.03400
C741        C  0.05728655  0.81068065  0.67828630     0.38100
C742        C  0.46081962  0.85871770  0.56602090     0.38100
C743        C  0.45243480  0.80230109  0.60916661     0.36500
C744        C  0.06065503  0.87122823  0.64193033     0.36500
N745        N  0.42950750  0.78983685  0.60420972    -0.38300
N746        N  0.08098244  0.88625112  0.65071080    -0.38300
N747        N  0.44189592  0.86835657  0.54303788    -0.37800
N748        N  0.07729825  0.80065587  0.69979103    -0.37800
C749        C  0.31419071  0.00412496  0.85589271    -0.04400
C750        C  0.33684988  0.97653471  0.86050688    -0.01500
C751        C  0.36632511  0.97873414  0.87964802     0.03400
C752        C  0.37293032  0.00841733  0.89524606    -0.04400
C753        C  0.35033154  0.53610346  0.88936833    -0.01500
C754        C  0.32102488  0.53393286  0.86975153     0.03400
C755        C  0.32961461  0.94575879  0.84582220     0.38100
C756        C  0.35812161  0.56733386  0.90172436     0.38100
C757        C  0.29832157  0.56253515  0.86331582     0.36500
C758        C  0.38968456  0.95029479  0.88341432     0.36500
N759        N  0.28021938  0.58532032  0.85799930    -0.38300
N760        N  0.40841199  0.92763782  0.88593847    -0.38300
N761        N  0.36433078  0.59233323  0.91126630    -0.37800
N762        N  0.32376481  0.92123204  0.83417376    -0.37800
C763        C  0.13801481  0.99031877  0.89742066    -0.04400
C764        C  0.15636998  0.96154863  0.88501616    -0.01500
C765        C  0.18551516  0.96267600  0.86474337     0.03400
C766        C  0.19662200  0.99249564  0.85707194    -0.04400
C767        C  0.17850531  0.52143208  0.86964721    -0.01500
C768        C  0.14938071  0.52038887  0.88995136     0.03400
C769        C  0.14506953  0.93074822  0.89251657     0.38100
C770        C  0.19004948  0.55209535  0.86190095     0.38100
C771        C  0.13228227  0.54979742  0.90544999     0.36500
C772        C  0.20418478  0.93315299  0.85182725     0.36500
N773        N  0.11900568  0.57325735  0.91828523    -0.38300
N774        N  0.21909109  0.90961292  0.84149750    -0.38300
N775        N  0.19935207  0.57648454  0.85561522    -0.37800
N776        N  0.13613849  0.90616877  0.89870197    -0.37800
C777        C  0.31600384  0.99178769  0.64716971    -0.04400
C778        C  0.32417965  0.52078959  0.63092069    -0.01500
C779        C  0.35419779  0.52145474  0.61258153     0.03400
C780        C  0.37599740  0.99275804  0.60904874    -0.04400
C781        C  0.36765309  0.96376599  0.62491985    -0.01500
C782        C  0.33772927  0.96333505  0.64392526     0.03400
C783        C  0.30172040  0.55001647  0.63343610     0.38100
C784        C  0.38929960  0.93415785  0.62080443     0.38100
C785        C  0.32871489  0.93343832  0.65914132     0.36500
C786        C  0.36312453  0.55195486  0.59901484     0.36500
N787        N  0.32125514  0.90965516  0.67116866    -0.38300
N788        N  0.37040595  0.57623113  0.58832399    -0.38300
N789        N  0.40645122  0.91042657  0.61768564    -0.37800
N790        N  0.28386649  0.57338122  0.63505632    -0.37800
C791        C  0.19573706  0.99646028  0.64688617    -0.04400
C792        C  0.18090943  0.52488565  0.62935479    -0.01500
C793        C  0.15246622  0.52449633  0.60731285     0.03400
C794        C  0.13860381  0.99591052  0.60297643    -0.04400
C795        C  0.15358747  0.96728686  0.62008411    -0.01500
C796        C  0.18161824  0.96772581  0.64276098     0.03400
C797        C  0.19468774  0.55469850  0.63489374     0.38100
C798        C  0.14086698  0.93711122  0.61321240     0.38100
C799        C  0.19589732  0.93862921  0.66202913     0.36500
C800        C  0.13839550  0.55341097  0.58765245     0.36500
N801        N  0.20708727  0.91552673  0.67774752    -0.38300
N802        N  0.12755889  0.57643421  0.57152510    -0.38300
N803        N  0.13118256  0.91292071  0.60692371    -0.37800
N804        N  0.20565322  0.57846606  0.63964223    -0.37800
C805        C  0.60901064  0.98425563  0.08118429     0.43400
N806        N  0.55820880  0.48887021  0.06735875     0.02300
C807        C  0.99363696  0.42890945  0.40456993    -0.05600
H808        H  0.56287890  0.02268832  0.37639729     0.07800
C809        C  0.97487118  0.09518383  0.45580967    -0.06000
Co810      Co  0.55071735  0.45280738  0.49659154     0.74200
N811        N  0.55222692  0.49581564  0.42793835    -0.25100
Co812      Co  0.00127200  0.99872891  0.42973288     0.74100
C813        C  0.48926359  0.09867286  0.41695647     0.43500
N814        N  0.99163029  0.06233290  0.04698335     0.01900
N815        N  0.99490456  0.04906986  0.43274665     0.02000
N816        N  0.52713242  0.39910923  0.44820502    -0.46000
H817        H  0.62297901  0.45563032  0.02708265     0.07700
N818        N  0.57053855  0.47873805  0.45353902     0.02300
N819        N  0.95124513  0.99979467  0.43345608     0.02000
C820        C  0.90108038  0.50365553  0.41787993     0.43600
N821        N  0.00757768  0.04424206  0.07356438    -0.24600
C822        C  0.52109914  0.39682049  0.04546603    -0.05500
N823        N  0.57943942  0.99691182  0.09327737    -0.45700
N824        N  0.93137819  0.49324550  0.40598865    -0.45900
C825        C  0.00394004  0.39475897  0.08136197     0.43400
N826        N  0.52561587  0.43046834  0.45435972     0.02300
N827        N  0.95833335  0.00080420  0.07331198    -0.24600
N828        N  0.57282099  0.47131969  0.03937428    -0.25100
N829        N  0.94154563  0.01871763  0.04719915     0.01900
H830        H  0.94539963  0.47427460  0.12400261     0.07800
H831        H  0.88484337  0.02934226  0.47293588     0.07800
N832        N  0.50696997  0.44762547  0.42914050    -0.25200
N833        N  0.97919894  0.06348684  0.46217019    -0.24800
N834        N  0.50881945  0.44472647  0.06856594     0.02300
C835        C  0.60392573  0.99754059  0.41428405     0.43700
C836        C  0.51685994  0.06394125  0.10106787    -0.06000
N837        N  0.93542962  0.01497154  0.46233717    -0.24800
H838        H  0.96188602  0.11266358  0.47478739     0.07800
N839        N  0.60172025  0.47738011  0.44596297    -0.46000
H840        H  0.52863610  0.05603279  0.12784237     0.07800
C841        C  0.90621427  0.50196311  0.08550131     0.43500
C842        C  0.60477985  0.46902938  0.04486907    -0.05500
Co843      Co  0.50801189  0.49463690  0.07158993     0.73800
N844        N  0.98976030  0.09337998  0.05482783    -0.45700
C845        C  0.00689993  0.39685136  0.41740969     0.43800
N846        N  0.99804279  0.42515805  0.09470010    -0.45700
Co847      Co  0.96472885  0.04253108  0.00455372     0.73900
C848        C  0.90369258  0.01668005  0.45538759    -0.06000
C849        C  0.57100234  0.00898331  0.40178000    -0.05600
N850        N  0.52317283  0.42815113  0.03967446    -0.25100
N851        N  0.50103096  0.06884264  0.40465356    -0.45900
H852        H  0.97771743  0.43592238  0.38054515     0.07800
C853        C  0.93839902  0.48874784  0.09880950    -0.06000
Cl854      Cl  0.50577874  0.99653933  0.00073794    -0.49000
C855        C  0.50485300  0.09670055  0.08825778     0.43500
H856        H  0.53172289  0.37726549  0.02746399     0.07700
N857        N  0.91011610  0.02198668  0.05405513    -0.45700
C858        C  0.49489415  0.27827610  0.16817285     0.04000
C859        C  0.49095230  0.27829470  0.20844664    -0.12100
C860        C  0.49363995  0.24931953  0.22981193     0.01500
C861        C  0.49874000  0.22013952  0.20892742    -0.10600
C862        C  0.50021764  0.21976838  0.16850753     0.04000
C863        C  0.49884700  0.24888544  0.14824738    -0.10100
H864        H  0.48598137  0.30135735  0.22246132     0.09600
H865        H  0.50174436  0.19715739  0.22336407     0.07200
H866        H  0.50110633  0.24863388  0.11707405     0.07000
C867        C  0.49558768  0.27696309  0.33564377     0.04000
C868        C  0.49276699  0.24816918  0.35521576    -0.12100
C869        C  0.48920601  0.22010669  0.33450116     0.01500
C870        C  0.48734556  0.22126774  0.29408522    -0.10600
C871        C  0.49198181  0.24940876  0.27339490     0.04000
C872        C  0.49606737  0.27723525  0.29508156    -0.10100
H873        H  0.49383866  0.24750659  0.38648495     0.09600
H874        H  0.48255915  0.19961161  0.27946700     0.07200
H875        H  0.50020622  0.29940263  0.28116832     0.07000
C876        C  0.72621388  0.49867772  0.16378893     0.04000
C877        C  0.75530360  0.49825890  0.14399693    -0.12100
C878        C  0.78412550  0.49801158  0.16449491     0.01500
C879        C  0.78384688  0.49786981  0.20501899    -0.11100
C880        C  0.75456843  0.49868640  0.22598813     0.04000
C881        C  0.72574383  0.49938437  0.20419462    -0.10100
H882        H  0.75555508  0.49776353  0.11269364     0.09600
H883        H  0.80691108  0.49712338  0.21897748     0.07200
H884        H  0.70242990  0.50008939  0.21741376     0.07000
C885        C  0.72460886  0.49732499  0.33116249     0.04000
C886        C  0.75329602  0.49782146  0.35181410    -0.12100
C887        C  0.78232862  0.49864314  0.33213030     0.01500
C888        C  0.78266880  0.49927975  0.29168331    -0.10600
C889        C  0.75406274  0.49843164  0.26981918     0.04000
C890        C  0.72500644  0.49729436  0.29069523    -0.10100
H891        H  0.75300747  0.49771770  0.38311836     0.09600
H892        H  0.80567032  0.50076484  0.27846230     0.07200
H893        H  0.70216866  0.49629410  0.27671212     0.07000
C894        C  0.48867610  0.18878593  0.35483963    -0.04400
C895        C  0.96278530  0.18503721  0.38106138    -0.01500
C896        C  0.96188050  0.15508875  0.39946722     0.03400
C897        C  0.48804828  0.12896908  0.39366529    -0.04400
C898        C  0.51297391  0.13340760  0.36718414    -0.01500
C899        C  0.51343118  0.16321136  0.34823801     0.03400
C900        C  0.93676201  0.21077270  0.38727647     0.38100
C901        C  0.53807999  0.10734046  0.35859557     0.38100
C902        C  0.53989979  0.16775052  0.32243469     0.36500
C903        C  0.93307071  0.14993133  0.42081166     0.36500
N904        N  0.56094631  0.17133569  0.30179489    -0.38300
N905        N  0.90977249  0.14615211  0.43740019    -0.38300
N906        N  0.55787888  0.08658220  0.35076915    -0.37800
N907        N  0.91583443  0.23102156  0.39270673    -0.37800
C908        C  0.49897911  0.30696381  0.35764484    -0.04400
C909        C  0.52766583  0.32163148  0.35494307    -0.01500
C910        C  0.53025696  0.35080411  0.37435183     0.03400
C911        C  0.50488951  0.36469972  0.39806482    -0.04400
C912        C  0.97552687  0.35148379  0.40042764    -0.01500
C913        C  0.97222793  0.32312622  0.37956019     0.03400
C914        C  0.55463838  0.30662619  0.33237218     0.38100
C915        C  0.94978612  0.36525941  0.42567974     0.38100
C916        C  0.94139119  0.31052532  0.37920895     0.36500
C917        C  0.55868055  0.36703436  0.36904401     0.36500
N918        N  0.91644510  0.30113852  0.37864091    -0.38300
N919        N  0.58120930  0.38015053  0.36443576    -0.38300
N920        N  0.92940742  0.37599910  0.44618903    -0.37800
N921        N  0.57615918  0.29462275  0.31440015    -0.37800
C922        C  0.50193883  0.18846692  0.14755077    -0.04400
C923        C  0.97514521  0.17993883  0.12808735    -0.01500
C924        C  0.97618085  0.15021990  0.10866255     0.03400
C925        C  0.50377556  0.12786274  0.10977831    -0.04400
C926        C  0.53050734  0.13536207  0.13183915    -0.01500
C927        C  0.52968039  0.16561823  0.15023990     0.03400
C928        C  0.94527657  0.20165941  0.12880917     0.38100
C929        C  0.55909487  0.11223615  0.13576857     0.38100
C930        C  0.55745294  0.17328123  0.17209644     0.36500
C931        C  0.94743015  0.14276184  0.08855344     0.36500
N932        N  0.57953711  0.17937831  0.18966407    -0.38300
N933        N  0.92444654  0.13697495  0.07255081    -0.38300
N934        N  0.58196099  0.09394515  0.13981116    -0.37800
N935        N  0.92116431  0.21850231  0.12973167    -0.37800
C936        C  0.49608488  0.30925947  0.14708029    -0.04400
C937        C  0.52063856  0.32878070  0.15562951    -0.01500
C938        C  0.52246491  0.35750666  0.13487964     0.03400
C939        C  0.50029742  0.36660703  0.10491224    -0.04400
C940        C  0.97636705  0.34633141  0.09603951    -0.01500
C941        C  0.97380169  0.31822949  0.11774516     0.03400
C942        C  0.54443453  0.31914836  0.18536410     0.38100
C943        C  0.95354404  0.35564021  0.06519535     0.38100
C944        C  0.94680113  0.30023224  0.11099789     0.36500
C945        C  0.54745139  0.37758867  0.14398635     0.36500
N946        N  0.92483531  0.28643055  0.10560450    -0.38300
N947        N  0.56721770  0.39378828  0.15122426    -0.38300
N948        N  0.93531636  0.36306353  0.04061232    -0.37800
N949        N  0.56333582  0.31161756  0.20921104    -0.37800
C950        C  0.81282269  0.49993559  0.35382117    -0.04400
C951        C  0.83561920  0.47228922  0.35694222    -0.01500
C952        C  0.86504078  0.47384112  0.37657708     0.03400
C953        C  0.87135614  0.50279642  0.39435141    -0.04400
C954        C  0.84929934  0.02748570  0.38947641    -0.01500
C955        C  0.82022270  0.02572744  0.36925499     0.03400
C956        C  0.82857919  0.44212285  0.34031401     0.38100
C957        C  0.85694707  0.05850308  0.40283880     0.38100
C958        C  0.79793034  0.05465505  0.36273582     0.36500
C959        C  0.88875744  0.44556339  0.37837043     0.36500
N960        N  0.78009878  0.07759935  0.35719804    -0.38300
N961        N  0.90782489  0.42308694  0.37917587    -0.38300
N962        N  0.86300209  0.08335143  0.41316802    -0.37800
N963        N  0.82293715  0.41803326  0.32716079    -0.37800
C964        C  0.63486294  0.49589051  0.39230009    -0.04400
C965        C  0.65385377  0.46675774  0.38230793    -0.01500
C966        C  0.68305944  0.46727224  0.36206162     0.03400
C967        C  0.69364168  0.49684079  0.35199779    -0.04400
C968        C  0.67426065  0.02885170  0.36234228    -0.01500
C969        C  0.64508672  0.02821338  0.38280346     0.03400
C970        C  0.64343451  0.43612911  0.39276403     0.38100
C971        C  0.68518403  0.05930516  0.35215461     0.38100
C972        C  0.62732238  0.05802938  0.39619166     0.36500
C973        C  0.70224330  0.43735196  0.35138480     0.36500
N974        N  0.61355595  0.08186552  0.40739199    -0.38300
N975        N  0.71752128  0.41350410  0.34277955    -0.38300
N976        N  0.69394720  0.08355221  0.34385996    -0.37800
N977        N  0.63536617  0.41166514  0.40143408    -0.37800
C978        C  0.81500212  0.49857702  0.14343369    -0.04400
C979        C  0.82227929  0.03180341  0.12805499    -0.01500
C980        C  0.85201725  0.03243152  0.10891601     0.03400
C981        C  0.87471549  0.50056297  0.10522033    -0.04400
C982        C  0.86693281  0.47138027  0.12129741    -0.01500
C983        C  0.83716126  0.47046231  0.14035092     0.03400
C984        C  0.79946811  0.06076748  0.13061092     0.38100
C985        C  0.88893446  0.44197345  0.11726220     0.38100
C986        C  0.82888973  0.44042370  0.15607982     0.36500
C987        C  0.85989270  0.06259150  0.09313523     0.36500
N988        N  0.82211621  0.41650679  0.16853536    -0.38300
N989        N  0.86613096  0.08667797  0.08058234    -0.38300
N990        N  0.90637609  0.41842610  0.11416465    -0.37800
N991        N  0.78122804  0.08383678  0.13260597    -0.37800
C992        C  0.69601654  0.49610522  0.14220246    -0.04400
C993        C  0.67924261  0.01999603  0.12662723    -0.01500
C994        C  0.65061731  0.01717501  0.10594954     0.03400
C995        C  0.63877451  0.49048300  0.10078250    -0.04400
C996        C  0.65650025  0.46292102  0.11715827    -0.01500
C997        C  0.68494819  0.46578860  0.13810773     0.03400
C998        C  0.69015074  0.05130977  0.13168826     0.38100
C999        C  0.64539571  0.43162915  0.11270224     0.38100
C1000       C  0.70281914  0.43759068  0.15573507     0.36500
C1001       C  0.63350989  0.04507216  0.08691785     0.36500
N1002       N  0.71708654  0.41522786  0.17001875    -0.38300
N1003       N  0.62003122  0.06710161  0.07112111    -0.38300
N1004       N  0.63667991  0.40662517  0.10896548    -0.37800
N1005       N  0.69881597  0.07628685  0.13589096    -0.37800
C1006       C  0.60917954  0.99498800  0.57951037     0.43400
N1007       N  0.55917677  0.49216946  0.56731593     0.02300
C1008       C  0.99080704  0.43050322  0.90223477    -0.05600
H1009       H  0.56825694  0.01995008  0.88010545     0.07800
C1010       C  0.98718602  0.09671468  0.95563949    -0.06000
Co1011     Co  0.54707724  0.45060230  0.99659872     0.74200
N1012       N  0.55353148  0.49348951  0.92868573    -0.25100
Co1013     Co  0.00358655  0.99934461  0.92951754     0.74100
C1014       C  0.49988912  0.09959082  0.91760282     0.43500
N1015       N  0.98359621  0.06058456  0.54751983     0.01900
N1016       N  0.00277689  0.04942773  0.93253783     0.02000
N1017       N  0.52002602  0.39992614  0.94673815    -0.46000
H1018       H  0.62542294  0.46363201  0.52649682     0.07700
N1019       N  0.57015709  0.47437477  0.95387826     0.02300
N1020       N  0.95340157  0.00589201  0.93267119     0.02000
C1021       C  0.90322395  0.50996270  0.91765116     0.43600
N1022       N  0.00176253  0.04396525  0.57352602    -0.24600
C1023       C  0.53102304  0.39620522  0.54592362    -0.05500
N1024       N  0.57887461  0.00340197  0.59278509    -0.45700
N1025       N  0.93304543  0.49787812  0.90579216    -0.45900
C1026       C  0.01540629  0.39384391  0.58207663     0.43400
N1027       N  0.52033204  0.43096257  0.95380837     0.02300
N1028       N  0.95847076  0.99456232  0.57400158    -0.24600
N1029       N  0.57477334  0.47612791  0.53883710    -0.25100
N1030       N  0.93992069  0.01066323  0.54787162     0.01900
H1031       H  0.94769245  0.46948010  0.62584756     0.07800
H1032       H  0.88884870  0.04061237  0.97178789     0.07800
N1033       N  0.50402221  0.44956605  0.92788498    -0.25200
N1034       N  0.98844852  0.06517787  0.96197708    -0.24800
N1035       N  0.51447433  0.44328853  0.56912038     0.02300
C1036       C  0.60645189  0.98958959  0.91728613     0.43700
C1037       C  0.51129771  0.06404118  0.60016221    -0.06000
N1038       N  0.93872219  0.02260603  0.96124042    -0.24800
H1039       H  0.97535047  0.11523034  0.97423077     0.07800
N1040       N  0.60165736  0.47140259  0.94752652    -0.46000
H1041       H  0.52457355  0.05699131  0.62626387     0.07800
C1042       C  0.90652237  0.49381074  0.58739716     0.43500
C1043       C  0.60657282  0.47604974  0.54424530    -0.05500
Co1044     Co  0.50898682  0.49336518  0.57196220     0.73800
N1045       N  0.97928004  0.09176974  0.55505817    -0.45700
C1046       C  0.00064409  0.39762474  0.91528419     0.43800
N1047       N  0.00547276  0.42374493  0.59506836    -0.45700
Co1048     Co  0.95918605  0.03774925  0.50524846     0.73900
C1049       C  0.90690216  0.02676226  0.95422496    -0.06000
C1050       C  0.57465747  0.00436724  0.90453810    -0.05600
N1051       N  0.53004433  0.42794596  0.54015025    -0.25100
N1052       N  0.50927642  0.06927990  0.90495869    -0.45900
H1053       H  0.97683066  0.43891329  0.87709758     0.07800
C1054       C  0.93949990  0.48287543  0.60024015    -0.06000
Cl1055     Cl  0.50527734  0.99575293  0.50065601    -0.49000
C1056       C  0.49676336  0.09599340  0.58756519     0.43500
H1057       H  0.54293319  0.37748984  0.52764191     0.07700
N1058       N  0.90881196  0.01067526  0.55496199    -0.45700
C1059       C  0.50058609  0.27588978  0.66543038     0.04000
C1060       C  0.49809763  0.27663235  0.70588553    -0.12100
C1061       C  0.49378472  0.24877455  0.72741553     0.01500
C1062       C  0.49143001  0.22015648  0.70639752    -0.10600
C1063       C  0.49521696  0.21895843  0.66622225     0.04000
C1064       C  0.49968491  0.24681120  0.64581360    -0.10100
H1065       H  0.50004287  0.29930991  0.71973824     0.09600
H1066       H  0.48676067  0.19822104  0.72029623     0.07200
H1067       H  0.50256864  0.24582902  0.61471616     0.07000
C1068       C  0.49298140  0.27851424  0.83281171     0.04000
C1069       C  0.49525121  0.24939336  0.85307995    -0.12100
C1070       C  0.49621725  0.22022205  0.83308168     0.01500
C1071       C  0.49556843  0.22030453  0.79261438    -0.10600
C1072       C  0.49300525  0.24923543  0.77117188     0.04000
C1073       C  0.49097665  0.27836027  0.79230966    -0.10100
H1074       H  0.49665567  0.24939305  0.88433825     0.09600
H1075       H  0.49749100  0.19719119  0.77874524     0.07200
H1076       H  0.48812067  0.30143669  0.77818093     0.07000
C1077       C  0.72666771  0.49609290  0.66861196     0.04000
C1078       C  0.75586788  0.49388245  0.64851962    -0.12100
C1079       C  0.78505656  0.49210969  0.66871966     0.01500
C1080       C  0.78497222  0.49169547  0.70922936    -0.11100
C1081       C  0.75568924  0.49502530  0.73032553     0.04000
C1082       C  0.72655196  0.49759740  0.70899957    -0.10100
H1083       H  0.75587759  0.49352864  0.61721972     0.09600
H1084       H  0.80814971  0.48879226  0.72349154     0.07200
H1085       H  0.70331207  0.50103913  0.72297144     0.07000
C1086       C  0.72700460  0.49421464  0.83574918     0.04000
C1087       C  0.75525164  0.49863638  0.85572655    -0.12100
C1088       C  0.78355894  0.50169188  0.83536867     0.01500
C1089       C  0.78339292  0.50147891  0.79494443    -0.10600
C1090       C  0.75548737  0.49607842  0.77392805     0.04000
C1091       C  0.72740456  0.49190632  0.79533383    -0.10100
H1092       H  0.75522522  0.49958325  0.88700838     0.09600
H1093       H  0.80543314  0.50572911  0.78069022     0.07200
H1094       H  0.70543712  0.48685481  0.78139062     0.07000
C1095       C  0.49724890  0.18910766  0.85431074    -0.04400
C1096       C  0.97172692  0.18280830  0.87688347    -0.01500
C1097       C  0.97200140  0.15313182  0.89611935     0.03400
C1098       C  0.49810355  0.12944272  0.89366124    -0.04400
C1099       C  0.52360531  0.13476261  0.86853988    -0.01500
C1100       C  0.52338646  0.16458753  0.84937793     0.03400
C1101       C  0.94351090  0.20658753  0.87994837     0.38100
C1102       C  0.54990761  0.10948648  0.86167106     0.38100
C1103       C  0.55032352  0.17013413  0.82485239     0.36500
C1104       C  0.94312934  0.14666559  0.91654996     0.36500
N1105       N  0.57171305  0.17450602  0.80512310    -0.38300
N1106       N  0.91991898  0.14175626  0.93259435    -0.38300
N1107       N  0.57064898  0.08926350  0.85526299    -0.37800
N1108       N  0.92070267  0.22511122  0.88268408    -0.37800
C1109       C  0.49477638  0.30936689  0.85378308    -0.04400
C1110       C  0.52217375  0.32585267  0.84929957    -0.01500
C1111       C  0.52384248  0.35534304  0.86843501     0.03400
C1112       C  0.49892552  0.36780030  0.89365967    -0.04400
C1113       C  0.97078495  0.35093867  0.89865651    -0.01500
C1114       C  0.96823196  0.32237225  0.87778332     0.03400
C1115       C  0.54904086  0.31207860  0.82567784     0.38100
C1116       C  0.94573821  0.36295088  0.92576775     0.38100
C1117       C  0.93891768  0.30721101  0.88038647     0.36500
C1118       C  0.55111786  0.37305911  0.86196398     0.36500
N1119       N  0.91505686  0.29586118  0.88241081    -0.38300
N1120       N  0.57269716  0.38739243  0.85657528    -0.38300
N1121       N  0.92581877  0.37234642  0.94757517    -0.37800
N1122       N  0.57051327  0.30095053  0.80700131    -0.37800
C1123       C  0.49564189  0.18776857  0.64571655    -0.04400
C1124       C  0.96705639  0.18071061  0.62597305    -0.01500
C1125       C  0.96728132  0.15078792  0.60713381     0.03400
C1126       C  0.49639291  0.12753609  0.60789619    -0.04400
C1127       C  0.52404929  0.13525547  0.62802087    -0.01500
C1128       C  0.52364031  0.16525028  0.64668511     0.03400
C1129       C  0.93786726  0.20340154  0.62643440     0.38100
C1130       C  0.55335688  0.11283211  0.62916527     0.38100
C1131       C  0.55219281  0.17311087  0.66687003     0.36500
C1132       C  0.93802311  0.14342829  0.58813697     0.36500
N1133       N  0.57491654  0.17941567  0.68299704    -0.38300
N1134       N  0.91460824  0.13777540  0.57299172    -0.38300
N1135       N  0.57681347  0.09504228  0.63070464    -0.37800
N1136       N  0.91445652  0.22131009  0.62701816    -0.37800
C1137       C  0.50428778  0.30591298  0.64364643    -0.04400
C1138       C  0.53075694  0.32312845  0.65121175    -0.01500
C1139       C  0.53327263  0.35236303  0.63197442     0.03400
C1140       C  0.51039782  0.36372647  0.60363603    -0.04400
C1141       C  0.98580634  0.34666738  0.59537942    -0.01500
C1142       C  0.98228899  0.31824586  0.61593939     0.03400
C1143       C  0.55576213  0.31056567  0.67830676     0.38100
C1144       C  0.96212434  0.35857233  0.56642350     0.38100
C1145       C  0.95367301  0.30239888  0.60989944     0.36500
C1146       C  0.55904184  0.37111652  0.64202028     0.36500
N1147       N  0.93069548  0.28997129  0.60514857    -0.38300
N1148       N  0.57935091  0.38617062  0.65077477    -0.38300
N1149       N  0.94326216  0.36806493  0.54330206    -0.37800
N1150       N  0.57571987  0.30058863  0.69990363    -0.37800
C1151       C  0.81414325  0.50407025  0.85634040    -0.04400
C1152       C  0.83684790  0.47648094  0.86068055    -0.01500
C1153       C  0.86637763  0.47862033  0.87972209     0.03400
C1154       C  0.87303290  0.50825138  0.89541639    -0.04400
C1155       C  0.85068017  0.03657736  0.88952598    -0.01500
C1156       C  0.82126654  0.03429883  0.87015621     0.03400
C1157       C  0.82959968  0.44575905  0.84583782     0.38100
C1158       C  0.85860228  0.06788043  0.90140926     0.38100
C1159       C  0.79848747  0.06284927  0.86377485     0.36500
C1160       C  0.88974406  0.45017096  0.88326730     0.36500
N1161       N  0.78030952  0.08559182  0.85853700    -0.38300
N1162       N  0.90846126  0.42749354  0.88559958    -0.38300
N1163       N  0.86494847  0.09293311  0.91053722    -0.37800
N1164       N  0.82375043  0.42127074  0.83406749    -0.37800
C1165       C  0.63750716  0.49116677  0.89704392    -0.04400
C1166       C  0.65588063  0.46229729  0.88495984    -0.01500
C1167       C  0.68518212  0.46325052  0.86496293     0.03400
C1168       C  0.69641234  0.49299459  0.85721170    -0.04400
C1169       C  0.67860700  0.02140495  0.87032297    -0.01500
C1170       C  0.64943196  0.02036266  0.89053302     0.03400
C1171       C  0.64449193  0.43155987  0.89259711     0.38100
C1172       C  0.69011730  0.05207532  0.86252922     0.38100
C1173       C  0.63233456  0.04976375  0.90604420     0.36500
C1174       C  0.70390748  0.43362452  0.85245583     0.36500
N1175       N  0.61906915  0.07321003  0.91892454    -0.38300
N1176       N  0.71886685  0.41000341  0.84246913    -0.38300
N1177       N  0.69938908  0.07647039  0.85619209    -0.37800
N1178       N  0.63551282  0.40702360  0.89890616    -0.37800
C1179       C  0.81599282  0.49208116  0.64744824    -0.04400
C1180       C  0.82418094  0.02061999  0.63144303    -0.01500
C1181       C  0.85412898  0.02116692  0.61290327     0.03400
C1182       C  0.87583674  0.49305534  0.60906562    -0.04400
C1183       C  0.86750002  0.46403376  0.62485979    -0.01500
C1184       C  0.83763588  0.46359876  0.64397839     0.03400
C1185       C  0.80183893  0.04992131  0.63406603     0.38100
C1186       C  0.88907852  0.43440186  0.62052658     0.38100
C1187       C  0.82857379  0.43367029  0.65904288     0.36500
C1188       C  0.86307707  0.05160609  0.59915102     0.36500
N1189       N  0.82105987  0.40986524  0.67093531    -0.38300
N1190       N  0.87036971  0.07582567  0.58828164    -0.38300
N1191       N  0.90617612  0.41065347  0.61722433    -0.37800
N1192       N  0.78409398  0.07335772  0.63575919    -0.37800
C1193       C  0.69588728  0.49609570  0.64714135    -0.04400
C1194       C  0.68113811  0.02483352  0.62956354    -0.01500
C1195       C  0.65278731  0.02444244  0.60733119     0.03400
C1196       C  0.63896907  0.49501540  0.60302431    -0.04400
C1197       C  0.65381858  0.46661613  0.62074576    -0.01500
C1198       C  0.68178073  0.46731413  0.64346827     0.03400
C1199       C  0.69512306  0.05456819  0.63478982     0.38100
C1200       C  0.64096090  0.43641247  0.61458244     0.38100
C1201       C  0.69602076  0.43843078  0.66320686     0.36500
C1202       C  0.63907064  0.05323071  0.58715271     0.36500
N1203       N  0.70718634  0.41549521  0.67927771    -0.38300
N1204       N  0.62852756  0.07615612  0.57062872    -0.38300
N1205       N  0.63114634  0.41218519  0.60892962    -0.37800
N1206       N  0.70624571  0.07827937  0.63929571    -0.37800
C1207       C  0.60852798  0.48763125  0.07966184     0.43400
N1208       N  0.55870532  0.98794982  0.06761065     0.02300
C1209       C  0.99436616  0.92834805  0.40456294    -0.05600
H1210       H  0.56358786  0.52095070  0.37616785     0.07800
C1211       C  0.97560515  0.59570847  0.45621122    -0.06000
Co1212     Co  0.55089826  0.95347566  0.49620642     0.74200
N1213       N  0.55188264  0.99673677  0.42768203    -0.25100
Co1214     Co  0.00116857  0.49921156  0.42987839     0.74100
C1215       C  0.48998875  0.59834766  0.41706240     0.43500
N1216       N  0.99125278  0.56181317  0.04729697     0.01900
N1217       N  0.99530240  0.54951386  0.43307568     0.02000
N1218       N  0.52772816  0.89954424  0.44783731    -0.46000
H1219       H  0.62293220  0.95223289  0.02848627     0.07700
N1220       N  0.57039030  0.97982800  0.45323480     0.02300
N1221       N  0.95108062  0.50085061  0.43368588     0.02000
C1222       C  0.90128981  0.00087810  0.41814696     0.43600
N1223       N  0.00745732  0.54380999  0.07375686    -0.24600
C1224       C  0.52062649  0.89649342  0.04555645    -0.05500
N1225       N  0.57878503  0.49902415  0.09237638    -0.45700
N1226       N  0.93170753  0.99126777  0.40608043    -0.45900
C1227       C  0.00292710  0.89531430  0.08150622     0.43400
N1228       N  0.52602452  0.93092871  0.45392804     0.02300
N1229       N  0.95872578  0.49963000  0.07339084    -0.24600
N1230       N  0.57308518  0.97012328  0.03969597    -0.25100
N1231       N  0.94175297  0.51748118  0.04738349     0.01900
H1232       H  0.94480286  0.97691879  0.12489875     0.07800
H1233       H  0.88512775  0.53201197  0.47289768     0.07800
N1234       N  0.50713073  0.94794646  0.42883106    -0.25200
N1235       N  0.97979645  0.56401244  0.46258810    -0.24800
N1236       N  0.50879908  0.94444126  0.06871252     0.02300
C1237       C  0.60434259  0.49523125  0.41404676     0.43700
C1238       C  0.51606135  0.56423953  0.10091765    -0.06000
N1239       N  0.93547731  0.51615446  0.46263151    -0.24800
H1240       H  0.96270347  0.61324967  0.47518454     0.07800
N1241       N  0.60154639  0.97928624  0.44593773    -0.46000
H1242       H  0.52788259  0.55631104  0.12765762     0.07800
C1243       C  0.90585569  0.00490052  0.08632385     0.43500
C1244       C  0.60499559  0.96636583  0.04592485    -0.05500
Co1245     Co  0.50843218  0.99429384  0.07180100     0.73800
N1246       N  0.98917999  0.59287537  0.05514715    -0.45700
C1247       C  0.00775963  0.89638663  0.41751323     0.43800
N1248       N  0.99708216  0.92575922  0.09475998    -0.45700
Co1249     Co  0.96452524  0.54181963  0.00485108     0.73900
C1250       C  0.90373086  0.51889356  0.45540509    -0.06000
C1251       C  0.57154119  0.50738734  0.40172327    -0.05600
N1252       N  0.52292780  0.92777248  0.03974764    -0.25100
N1253       N  0.50171626  0.56848498  0.40479213    -0.45900
H1254       H  0.97844101  0.93523360  0.38050304     0.07800
C1255       C  0.93790255  0.99095008  0.09933334    -0.06000
Cl1256     Cl  0.50543866  0.49683887  0.00053398    -0.49000
C1257       C  0.50403098  0.59697802  0.08813827     0.43500
H1258       H  0.53110595  0.87687302  0.02755627     0.07700
N1259       N  0.91029386  0.51968331  0.05369685    -0.45700
C1260       C  0.49471770  0.77826096  0.16860567     0.04000
C1261       C  0.49097424  0.77823477  0.20890263    -0.12100
C1262       C  0.49378054  0.74923763  0.23022342     0.01500
C1263       C  0.49873216  0.72008046  0.20926605    -0.10600
C1264       C  0.49998464  0.71976940  0.16883183     0.04000
C1265       C  0.49855943  0.74890441  0.14862401    -0.10100
H1266       H  0.48606821  0.80128157  0.22296671     0.09600
H1267       H  0.50178413  0.69707481  0.22364368     0.07200
H1268       H  0.50067594  0.74869202  0.11743523     0.07000
C1269       C  0.49613251  0.77683971  0.33605629     0.04000
C1270       C  0.49344693  0.74801829  0.35564397    -0.12100
C1271       C  0.48990890  0.71993805  0.33493223     0.01500
C1272       C  0.48789026  0.72112231  0.29453153    -0.10600
C1273       C  0.49236463  0.74929208  0.27382037     0.04000
C1274       C  0.49648882  0.77712137  0.29549117    -0.10100
H1275       H  0.49459669  0.74735098  0.38690861     0.09600
H1276       H  0.48308280  0.69946112  0.27994350     0.07200
H1277       H  0.50054965  0.79930651  0.28156464     0.07000
C1278       C  0.72705906  0.99549710  0.16476472     0.04000
C1279       C  0.75560775  0.99899432  0.14510579    -0.12100
C1280       C  0.78373518  0.00244279  0.16579168     0.01500
C1281       C  0.78296000  0.00364780  0.20624374    -0.11100
C1282       C  0.75459410  0.99919737  0.22688419     0.04000
C1283       C  0.72680882  0.99464572  0.20516746    -0.10100
H1284       H  0.75604160  0.99854658  0.11381197     0.09600
H1285       H  0.80489240  0.00798551  0.22082112     0.07200
H1286       H  0.70465192  0.98999583  0.21887451     0.07000
C1287       C  0.72416191  0.00013822  0.33144005     0.04000
C1288       C  0.75315802  0.99702343  0.35214486    -0.12100
C1289       C  0.78258416  0.99492120  0.33253034     0.01500
C1290       C  0.78301735  0.99460254  0.29210261    -0.10600
C1291       C  0.75406193  0.99868067  0.27042260     0.04000
C1292       C  0.72459906  0.00207995  0.29106793    -0.10100
H1293       H  0.75282198  0.99656087  0.38343715     0.09600
H1294       H  0.80635497  0.99144329  0.27834073     0.07200
H1295       H  0.70156930  0.00620485  0.27653145     0.07000
C1296       C  0.48942408  0.68858754  0.35522705    -0.04400
C1297       C  0.96291612  0.68514721  0.38077037    -0.01500
C1298       C  0.96220084  0.65530387  0.39946946     0.03400
C1299       C  0.48873388  0.62864887  0.39376366    -0.04400
C1300       C  0.51361772  0.63311048  0.36724217    -0.01500
C1301       C  0.51411590  0.66298005  0.34844929     0.03400
C1302       C  0.93676050  0.71078146  0.38679284     0.38100
C1303       C  0.53859997  0.60698204  0.35843167     0.38100
C1304       C  0.54055346  0.66754891  0.32261623     0.36500
C1305       C  0.93350788  0.65015318  0.42105215     0.36500
N1306       N  0.56157630  0.67116407  0.30195382    -0.38300
N1307       N  0.91030413  0.64638481  0.43784075    -0.38300
N1308       N  0.55826590  0.58614285  0.35045556    -0.37800
N1309       N  0.91568912  0.73090953  0.39207570    -0.37800
C1310       C  0.49952645  0.80687333  0.35800821    -0.04400
C1311       C  0.52827650  0.82143780  0.35540811    -0.01500
C1312       C  0.53087360  0.85067813  0.37467557     0.03400
C1313       C  0.50539144  0.86482038  0.39806300    -0.04400
C1314       C  0.97657424  0.85077710  0.40123750    -0.01500
C1315       C  0.97299337  0.82267410  0.38002405     0.03400
C1316       C  0.55529766  0.80626447  0.33304502     0.38100
C1317       C  0.95130437  0.86409521  0.42739555     0.38100
C1318       C  0.94215839  0.81007283  0.38010899     0.36500
C1319       C  0.55944272  0.86671059  0.36955102     0.36500
N1320       N  0.91717978  0.80075046  0.37990645    -0.38300
N1321       N  0.58211498  0.87963622  0.36509389    -0.38300
N1322       N  0.93130025  0.87446707  0.44860536    -0.37800
N1323       N  0.57685257  0.79412579  0.31523296    -0.37800
C1324       C  0.50154352  0.68852873  0.14778270    -0.04400
C1325       C  0.97471147  0.67972481  0.12797580    -0.01500
C1326       C  0.97569065  0.64986181  0.10885250     0.03400
C1327       C  0.50312028  0.62810317  0.10968344    -0.04400
C1328       C  0.52991410  0.63541806  0.13177377    -0.01500
C1329       C  0.52923218  0.66560443  0.15029186     0.03400
C1330       C  0.94482865  0.70142205  0.12871329     0.38100
C1331       C  0.55840029  0.61215490  0.13567617     0.38100
C1332       C  0.55710135  0.67311305  0.17208092     0.36500
C1333       C  0.94680772  0.64214834  0.08924370     0.36500
N1334       N  0.57926888  0.67908149  0.18958466    -0.38300
N1335       N  0.92371576  0.63613376  0.07366215    -0.38300
N1336       N  0.58116649  0.59373504  0.13973216    -0.37800
N1337       N  0.92072073  0.71827265  0.12963915    -0.37800
C1338       C  0.49582117  0.80924721  0.14751993    -0.04400
C1339       C  0.52033491  0.82882539  0.15603657    -0.01500
C1340       C  0.52210984  0.85752387  0.13522717     0.03400
C1341       C  0.49996560  0.86649965  0.10519929    -0.04400
C1342       C  0.97530599  0.84692024  0.09635482    -0.01500
C1343       C  0.97303828  0.81856794  0.11771957     0.03400
C1344       C  0.54416163  0.81926942  0.18576463     0.38100
C1345       C  0.95210623  0.85653368  0.06600001     0.38100
C1346       C  0.94611939  0.80046207  0.11095880     0.36500
C1347       C  0.54703889  0.87768466  0.14430532     0.36500
N1348       N  0.92424763  0.78652677  0.10556173    -0.38300
N1349       N  0.56675460  0.89394974  0.15151923    -0.38300
N1350       N  0.93356838  0.86422120  0.04182331    -0.37800
N1351       N  0.56309030  0.81180193  0.20960217    -0.37800
C1352       C  0.81311851  0.99610153  0.35421815    -0.04400
C1353       C  0.83584139  0.96846641  0.35799180    -0.01500
C1354       C  0.86528578  0.97032067  0.37754521     0.03400
C1355       C  0.87163950  0.99955780  0.39461040    -0.04400
C1356       C  0.84889885  0.53077039  0.38996597    -0.01500
C1357       C  0.81975793  0.52928477  0.36971815     0.03400
C1358       C  0.82871890  0.93806239  0.34214843     0.38100
C1359       C  0.85646714  0.56156877  0.40413946     0.38100
C1360       C  0.79717224  0.55814145  0.36421908     0.36500
C1361       C  0.88903901  0.94212116  0.37987903     0.36500
N1362       N  0.77910273  0.58105443  0.35952700    -0.38300
N1363       N  0.90815039  0.91969660  0.38106285    -0.38300
N1364       N  0.86245318  0.58625909  0.41510814    -0.37800
N1365       N  0.82302583  0.91376944  0.32962061    -0.37800
C1366       C  0.63434210  0.99851717  0.39240177    -0.04400
C1367       C  0.65326198  0.96949280  0.38194162    -0.01500
C1368       C  0.68242308  0.97018525  0.36171451     0.03400
C1369       C  0.69307047  0.99983592  0.35206554    -0.04400
C1370       C  0.67479718  0.52594020  0.36193570    -0.01500
C1371       C  0.64562752  0.52548610  0.38238317     0.03400
C1372       C  0.64280480  0.93876647  0.39189056     0.38100
C1373       C  0.68559867  0.55633997  0.35121016     0.38100
C1374       C  0.62789608  0.55542437  0.39546859     0.36500
C1375       C  0.70145588  0.94031130  0.35050123     0.36500
N1376       N  0.61416504  0.57934812  0.40646032    -0.38300
N1377       N  0.71660793  0.91651211  0.34146535    -0.38300
N1378       N  0.69425736  0.58053361  0.34247674    -0.37800
N1379       N  0.63469401  0.91423145  0.40016006    -0.37800
C1380       C  0.81473163  0.00313122  0.14507218    -0.04400
C1381       C  0.82239700  0.52751712  0.12688690    -0.01500
C1382       C  0.85215216  0.52861742  0.10806254     0.03400
C1383       C  0.87435863  0.00415923  0.10632651    -0.04400
C1384       C  0.86638655  0.97527568  0.12297052    -0.01500
C1385       C  0.83671991  0.97485381  0.14233793     0.03400
C1386       C  0.79944737  0.55637822  0.12975970     0.38100
C1387       C  0.88801207  0.94559343  0.11907038     0.38100
C1388       C  0.82841541  0.94511895  0.15892408     0.36500
C1389       C  0.85986227  0.55910385  0.09303662     0.36500
N1390       N  0.82161148  0.92148029  0.17212550    -0.38300
N1391       N  0.86597643  0.58344547  0.08110984    -0.38300
N1392       N  0.90513455  0.92182600  0.11605088    -0.37800
N1393       N  0.78108539  0.57934119  0.13197536    -0.37800
C1394       C  0.69703794  0.99244240  0.14294010    -0.04400
C1395       C  0.67841785  0.52363996  0.12568008    -0.01500
C1396       C  0.64993050  0.52077339  0.10468829     0.03400
C1397       C  0.63944498  0.98691309  0.10206460    -0.04400
C1398       C  0.65741479  0.95927921  0.11802474    -0.01500
C1399       C  0.68605044  0.96209896  0.13872730     0.03400
C1400       C  0.68944828  0.55488711  0.13071955     0.38100
C1401       C  0.64634680  0.92798997  0.11343179     0.38100
C1402       C  0.70422947  0.93384765  0.15582336     0.36500
C1403       C  0.63298331  0.54860718  0.08537961     0.36500
N1404       N  0.71874222  0.91141301  0.16965855    -0.38300
N1405       N  0.61964355  0.57061421  0.06940023    -0.38300
N1406       N  0.63765570  0.90298370  0.10959854    -0.37800
N1407       N  0.69817381  0.57983698  0.13492756    -0.37800
C1408       C  0.60929295  0.49422388  0.57967715     0.43400
N1409       N  0.55908841  0.99273352  0.56707654     0.02300
C1410       C  0.99072670  0.93073090  0.90217042    -0.05600
H1411       H  0.56781167  0.52030329  0.87961243     0.07800
C1412       C  0.98635734  0.59642158  0.95597011    -0.06000
Co1413     Co  0.54707148  0.95001065  0.99673583     0.74200
N1414       N  0.55383037  0.99298515  0.92896214    -0.25100
Co1415     Co  0.00351702  0.49912539  0.92958522     0.74100
C1416       C  0.49911574  0.59981613  0.91728279     0.43500
N1417       N  0.98427643  0.56081420  0.54787251     0.01900
N1418       N  0.00236130  0.54924575  0.93279295     0.02000
N1419       N  0.51979980  0.89970341  0.94667636    -0.46000
H1420       H  0.62544530  0.96467512  0.52616523     0.07700
N1421       N  0.57036078  0.97371375  0.95408806     0.02300
N1422       N  0.95334257  0.50532596  0.93285204     0.02000
C1423       C  0.90328819  0.01062742  0.91741681     0.43600
N1424       N  0.00226383  0.54402411  0.57388900    -0.24600
C1425       C  0.53155200  0.89652827  0.54538321    -0.05500
N1426       N  0.57902357  0.50287632  0.59291498    -0.45700
N1427       N  0.93308701  0.99835799  0.90567820    -0.45900
C1428       C  0.01545541  0.89382264  0.58217214     0.43400
N1429       N  0.52016645  0.93070285  0.95389576     0.02300
N1430       N  0.95856802  0.49496550  0.57413740    -0.24600
N1431       N  0.57476508  0.97690293  0.53850741    -0.25100
N1432       N  0.94009995  0.51134390  0.54814802     0.01900
H1433       H  0.94772947  0.96940646  0.62601824     0.07800
H1434       H  0.88873090  0.53963491  0.97223229     0.07800
N1435       N  0.50404198  0.94941793  0.92794178    -0.25200
N1436       N  0.98790695  0.56484813  0.96226392    -0.24800
N1437       N  0.51473355  0.94350492  0.56869696     0.02300
C1438       C  0.60614622  0.49024267  0.91692071     0.43700
C1439       C  0.51173481  0.56385685  0.60027871    -0.06000
N1440       N  0.93862536  0.52182463  0.96155005    -0.24800
H1441       H  0.97441055  0.61482806  0.97462119     0.07800
N1442       N  0.60187614  0.97065610  0.94778932    -0.46000
H1443       H  0.52492234  0.55681218  0.62644257     0.07800
C1444       C  0.90645739  0.99323159  0.58735048     0.43500
C1445       C  0.60654398  0.97697028  0.54394294    -0.05500
Co1446     Co  0.50891097  0.99357902  0.57170888     0.73800
N1447       N  0.98015250  0.59197530  0.55548815    -0.45700
C1448       C  0.00042895  0.89785555  0.91534409     0.43800
N1449       N  0.00552162  0.92373828  0.59509567    -0.45700
Co1450     Co  0.95957751  0.53838561  0.50560968     0.73900
C1451       C  0.90680256  0.52589513  0.95458772    -0.06000
C1452       C  0.57429058  0.50486088  0.90414696    -0.05600
N1453       N  0.53044862  0.92830399  0.53972436    -0.25100
N1454       N  0.50864074  0.56951403  0.90471285    -0.45900
H1455       H  0.97696484  0.93912558  0.87686841     0.07800
C1456       C  0.93947525  0.98255046  0.60025774    -0.06000
Cl1457     Cl  0.50543328  0.49544103  0.50089246    -0.49000
C1458       C  0.49735396  0.59583458  0.58755206     0.43500
H1459       H  0.54353059  0.87789696  0.52703862     0.07700
N1460       N  0.90896917  0.51145638  0.55518458    -0.45700
C1461       C  0.50063805  0.77608230  0.66479395     0.04000
C1462       C  0.49803353  0.77682973  0.70525024    -0.12100
C1463       C  0.49400660  0.74889574  0.72680890     0.01500
C1464       C  0.49200915  0.72021089  0.70577658    -0.10600
C1465       C  0.49576454  0.71905691  0.66559873     0.04000
C1466       C  0.49997170  0.74697082  0.64517894    -0.10100
H1467       H  0.49966867  0.79958332  0.71903350     0.09600
H1468       H  0.48763057  0.69818193  0.71959371     0.07200
H1469       H  0.50287175  0.74600580  0.61408255     0.07000
C1470       C  0.49321540  0.77855516  0.83229488     0.04000
C1471       C  0.49505596  0.74945157  0.85254580    -0.12100
C1472       C  0.49574440  0.72032723  0.83253311     0.01500
C1473       C  0.49514468  0.72042557  0.79205832    -0.10600
C1474       C  0.49311315  0.74934521  0.77060041     0.04000
C1475       C  0.49145535  0.77843373  0.79177341    -0.10100
H1476       H  0.49634477  0.74942902  0.88381249     0.09600
H1477       H  0.49669604  0.69732830  0.77827144     0.07200
H1478       H  0.48904040  0.80151639  0.77770506     0.07000
C1479       C  0.72655968  0.99617633  0.66869735     0.04000
C1480       C  0.75576443  0.99383524  0.64858808    -0.12100
C1481       C  0.78497867  0.99190517  0.66876798     0.01500
C1482       C  0.78490837  0.99146785  0.70927644    -0.11100
C1483       C  0.75563672  0.99494462  0.73038507     0.04000
C1484       C  0.72647625  0.99765566  0.70909366    -0.10100
H1485       H  0.75575755  0.99351084  0.61728779     0.09600
H1486       H  0.80808433  0.98843955  0.72355062     0.07200
H1487       H  0.70325815  0.00120398  0.72312006     0.07000
C1488       C  0.72711545  0.99404153  0.83585405     0.04000
C1489       C  0.75535495  0.99861838  0.85576487    -0.12100
C1490       C  0.78359929  0.00182397  0.83534800     0.01500
C1491       C  0.78337466  0.00159270  0.79492265    -0.10600
C1492       C  0.75548409  0.99602554  0.77397804     0.04000
C1493       C  0.72746739  0.99171997  0.79543460    -0.10100
H1494       H  0.75537049  0.99957302  0.88704626     0.09600
H1495       H  0.80534861  0.00596204  0.78059208     0.07200
H1496       H  0.70552899  0.98655241  0.78150701     0.07000
C1497       C  0.49662573  0.68921536  0.85374937    -0.04400
C1498       C  0.97112061  0.68286309  0.87744521    -0.01500
C1499       C  0.97133694  0.65318304  0.89668370     0.03400
C1500       C  0.49738371  0.62964652  0.89330107    -0.04400
C1501       C  0.52288211  0.63486092  0.86811840    -0.01500
C1502       C  0.52270142  0.66462760  0.84884166     0.03400
C1503       C  0.94296069  0.70670302  0.88054948     0.38100
C1504       C  0.54915890  0.60954330  0.86131803     0.38100
C1505       C  0.54961550  0.67003967  0.82420575     0.36500
C1506       C  0.94247560  0.64681040  0.91719957     0.36500
N1507       N  0.57097750  0.67430314  0.80437720    -0.38300
N1508       N  0.91926474  0.64198301  0.93330068    -0.38300
N1509       N  0.56988434  0.58928974  0.85496939    -0.37800
N1510       N  0.92018069  0.72525938  0.88331180    -0.37800
C1511       C  0.49497858  0.80937377  0.85334492    -0.04400
C1512       C  0.52236163  0.82590399  0.84898926    -0.01500
C1513       C  0.52391722  0.85540448  0.86814723     0.03400
C1514       C  0.49892518  0.86778958  0.89331017    -0.04400
C1515       C  0.97068422  0.85105405  0.89899053    -0.01500
C1516       C  0.96817935  0.82240532  0.87827579     0.03400
C1517       C  0.54933383  0.81216329  0.82551046     0.38100
C1518       C  0.94566740  0.86308242  0.92613293     0.38100
C1519       C  0.93888395  0.80722608  0.88097139     0.36500
C1520       C  0.55116515  0.87318831  0.86180315     0.36500
N1521       N  0.91503022  0.79587361  0.88307566    -0.38300
N1522       N  0.57271751  0.88758320  0.85652521    -0.38300
N1523       N  0.92578844  0.87248730  0.94798625    -0.37800
N1524       N  0.57090197  0.80107168  0.80695956    -0.37800
C1525       C  0.49626846  0.68784049  0.64513168    -0.04400
C1526       C  0.96767056  0.68071583  0.62631841    -0.01500
C1527       C  0.96796405  0.65074364  0.60760701     0.03400
C1528       C  0.49698438  0.62742013  0.60777299    -0.04400
C1529       C  0.52460497  0.63516807  0.62793947    -0.01500
C1530       C  0.52421384  0.66525748  0.64638010     0.03400
C1531       C  0.93847558  0.70340511  0.62653684     0.38100
C1532       C  0.55384242  0.61265989  0.62938780     0.38100
C1533       C  0.55271712  0.67313326  0.66665397     0.36500
C1534       C  0.93874081  0.64330718  0.58858621     0.36500
N1535       N  0.57540113  0.67944351  0.68286030    -0.38300
N1536       N  0.91535538  0.63758561  0.57342964    -0.38300
N1537       N  0.57724093  0.59480537  0.63117321    -0.37800
N1538       N  0.91505411  0.72130322  0.62690982    -0.37800
C1539       C  0.50439550  0.80610603  0.64302447    -0.04400
C1540       C  0.53091696  0.82324034  0.65060985    -0.01500
C1541       C  0.53358879  0.85240560  0.63128864     0.03400
C1542       C  0.51078658  0.86381481  0.60288995    -0.04400
C1543       C  0.98575453  0.84672195  0.59563842    -0.01500
C1544       C  0.98218283  0.81836301  0.61631193     0.03400
C1545       C  0.55579355  0.81068629  0.67787063     0.38100
C1546       C  0.96206762  0.85861286  0.56668576     0.38100
C1547       C  0.95357726  0.80250174  0.61026767     0.36500
C1548       C  0.55942266  0.87106449  0.64136167     0.36500
N1549       N  0.93059881  0.79007884  0.60550272    -0.38300
N1550       N  0.57979142  0.88602632  0.65016244    -0.38300
N1551       N  0.94317660  0.86810392  0.54359729    -0.37800
N1552       N  0.57563827  0.80072143  0.69961493    -0.37800
C1553       C  0.81418602  0.00434002  0.85626624    -0.04400
C1554       C  0.83684501  0.97675854  0.86094752    -0.01500
C1555       C  0.86638013  0.97901621  0.87993104     0.03400
C1556       C  0.87307945  0.00876485  0.89525397    -0.04400
C1557       C  0.85059592  0.53608573  0.89001416    -0.01500
C1558       C  0.82118084  0.53392590  0.87060511     0.03400
C1559       C  0.82954647  0.94592819  0.84650275     0.38100
C1560       C  0.85847205  0.56730828  0.90228263     0.38100
C1561       C  0.79836748  0.56250415  0.86454430     0.36500
C1562       C  0.88971161  0.95057036  0.88378622     0.36500
N1563       N  0.78016553  0.58527163  0.85956159    -0.38300
N1564       N  0.90840382  0.92789307  0.88636278    -0.38300
N1565       N  0.86477670  0.59229926  0.91172380    -0.37800
N1566       N  0.82365008  0.92135548  0.83505326    -0.37800
C1567       C  0.63783314  0.99060577  0.89748681    -0.04400
C1568       C  0.65622483  0.96180547  0.88522393    -0.01500
C1569       C  0.68545003  0.96288440  0.86510045     0.03400
C1570       C  0.69658530  0.99268562  0.85740566    -0.04400
C1571       C  0.67844863  0.52178489  0.86993702    -0.01500
C1572       C  0.64919290  0.52086967  0.89002255     0.03400
C1573       C  0.64491470  0.93101739  0.89277101     0.38100
C1574       C  0.69007556  0.55239267  0.86210389     0.38100
C1575       C  0.63211701  0.55034367  0.90536759     0.36500
C1576       C  0.70418635  0.93333087  0.85238718     0.36500
N1577       N  0.61888011  0.57385639  0.91811554    -0.38300
N1578       N  0.71915417  0.90976873  0.84222966    -0.38300
N1579       N  0.69944487  0.57673589  0.85573743    -0.37800
N1580       N  0.63599518  0.90644018  0.89900123    -0.37800
C1581       C  0.81592980  0.99178028  0.64748915    -0.04400
C1582       C  0.82419535  0.52097348  0.63150053    -0.01500
C1583       C  0.85413443  0.52160704  0.61297096     0.03400
C1584       C  0.87580484  0.99258593  0.60911545    -0.04400
C1585       C  0.86744396  0.96362844  0.62504801    -0.01500
C1586       C  0.83755766  0.96327172  0.64414493     0.03400
C1587       C  0.80180819  0.55023730  0.63420924     0.38100
C1588       C  0.88902745  0.93398263  0.62087973     0.38100
C1589       C  0.82845290  0.93339089  0.65929657     0.36500
C1590       C  0.86304777  0.55210474  0.59937242     0.36500
N1591       N  0.82090653  0.90962006  0.67125116    -0.38300
N1592       N  0.87031202  0.57637322  0.58863058    -0.38300
N1593       N  0.90613470  0.91022697  0.61771098    -0.37800
N1594       N  0.78402545  0.57364377  0.63596764    -0.37800
C1595       C  0.69574780  0.99636514  0.64722194    -0.04400
C1596       C  0.68119026  0.52446480  0.62934919    -0.01500
C1597       C  0.65282892  0.52390739  0.60719089     0.03400
C1598       C  0.63882952  0.99562255  0.60297652    -0.04400
C1599       C  0.65360368  0.96712101  0.62054701    -0.01500
C1600       C  0.68155917  0.96764892  0.64333402     0.03400
C1601       C  0.69508396  0.55427197  0.63438378     0.38100
C1602       C  0.64071380  0.93697575  0.61408970     0.38100
C1603       C  0.69571946  0.93865086  0.66290022     0.36500
C1604       C  0.63897549  0.55260392  0.58693032     0.36500
N1605       N  0.70682309  0.91562145  0.67883156    -0.38300
N1606       N  0.62831041  0.57545573  0.57034868    -0.38300
N1607       N  0.63087755  0.91280142  0.60817000    -0.37800
N1608       N  0.70613714  0.57804006  0.63873567    -0.37800
loop_ 
_geom_bond_atom_site_label_1 
_geom_bond_atom_site_label_2 
_geom_bond_distance 
_geom_bond_site_symmetry_2 
_ccdc_geom_bond_type 
C1           N19   1.350       .  A
C1          C440   1.453       .  S
C1          C593   1.476       .  S
N2           N24   1.322       .  A
N2          N421   1.325       .  A
N2          Co39   2.087       .  S
C3          N832   1.341       .  A
C3           C41   1.457       .  S
C3           H48   1.081       .  S
H4           C45   1.081       .  S
C5           N29   1.336       .  A
C5          C813   1.462       .  S
C5           H34   1.080       .  S
Co6          N14   2.076       .  S
Co6          N22   2.085       .  S
Co6         N225   2.081       .  S
Co6         N247   2.081       .  S
Co6        Cl653   2.441       .  S
N7          C447   1.345       .  A
N7           N14   1.321       .  A
N7        Co1214   2.096       .  S
Co8          N11   2.095   1_565  S
Co8          N15   2.087       .  S
Co8        N1213   2.095       .  S
Co8        N1234   2.089       .  S
Co8       Cl1055   2.463       .  S
C9           N47   1.356   1_655  A
C9           C93   1.500       .  S
C9          C809   1.462       .  S
N10          N17   1.318       .  A
N10          N40   1.322       .  A
N10         Co43   2.079       .  S
N11          N29   1.319       .  A
N11         N851   1.327       .  A
N12         C845   1.348       .  A
N12          N22   1.325       .  A
H13          C38   1.082       .  S
N14          N35   1.322       .  A
N15          N33   1.320   1_565  A
N15         N422   1.326       .  A
C16          N20   1.351       .  A
C16         C149   1.486       .  S
C16         C446   1.458       .  S
N17         C836   1.347       .  A
N17       Co1245   2.095   1_545  S
C18          N46   1.341       .  A
C18         C825   1.457       .  S
C18          H52   1.081       .  S
N19         N404   1.325       .  A
N20         N417   1.326       .  A
C21          N42   1.349       .  A
C21         C822   1.457       .  S
C21         C939   1.480       .  S
N22          N28   1.321       .  A
N23         C451   1.341   1_545  A
N23          N25   1.319       .  A
N23       Co1245   2.082   1_545  S
N24          C38   1.339       .  A
N24        Co207   2.081   1_554  S
N25          N53   1.324       .  A
N25         Co43   2.086       .  S
H26          C49   1.081       .  S
H27          C44   1.082       .  S
N28         C807   1.342   1_455  A
N28       Co1214   2.090       .  S
N29        Co244   2.076       .  S
N30          N46   1.320       .  A
N30         N846   1.325   1_455  A
N30         Co39   2.090       .  S
C31         N437   1.347       .  A
C31          C45   1.464   1_565  S
C31         C562   1.485       .  S
C32         N821   1.347       .  A
C32          C51   1.470       .  S
C32          H36   1.081       .  S
N33          C44   1.339       .  A
N33        Co244   2.080       .  S
N35         C433   1.347       .  A
C37         N455   1.350       .  A
C37          C49   1.462       .  S
C37         C177   1.489       .  S
C38         C403   1.454       .  S
Co39       N1223   2.097       .  S
Co39       N1229   2.081   1_455  S
Co39       Cl452   2.464       .  S
N40         C855   1.348       .  A
C41         N816   1.348       .  A
C41         C911   1.479       .  S
N42         N834   1.325       .  A
Co43        N230   2.069   1_554  S
Co43        N234   2.082   1_554  S
Co43       Cl854   2.429   1_545  S
C44         C418   1.458       .  S
C45         N409   1.345   1_545  A
N46        Co207   2.081   1_554  S
N47         N815   1.327   1_455  A
C49         N425   1.341       .  A
Cl50       Co609   2.444   1_554  S
Cl50      Co1013   2.464   1_554  S
Cl50       Co441   2.464       .  S
Cl50       Co847   2.429   1_465  S
C51         N844   1.349   1_455  A
C51         C121   1.500       .  S
N53         C439   1.350       .  A
C54         C132   1.495       .  S
C54          C55   1.404       .  A
C54          C59   1.404       .  A
C55          H60   1.079       .  S
C55          C56   1.414       .  A
C56          C67   1.511       .  S
C56          C57   1.415       .  A
C57          H61   1.078   1_655  S
C57          C58   1.402   1_655  A
C58         C118   1.493       .  S
C58          C59   1.402   1_455  A
C59          H62   1.084   1_655  S
C63         C104   1.491       .  S
C63          C64   1.401       .  A
C63          C68   1.405       .  A
C64          H69   1.084       .  S
C64          C65   1.401       .  A
C65          C90   1.492       .  S
C65          C66   1.402       .  A
C66          H70   1.079       .  S
C66          C67   1.412       .  A
C67          C68   1.415       .  A
C68          H71   1.079   1_655  S
C72         C188   1.481       .  S
C72          C73   1.396       .  A
C72          C77   1.400       .  A
C73          H78   1.084       .  S
C73          C74   1.395       .  A
C74         C174   1.483       .  S
C74          C75   1.401       .  A
C75          H79   1.079       .  S
C75          C76   1.415       .  A
C76          C85   1.508       .  S
C76          C77   1.414       .  A
C77          H80   1.079       .  S
C81         C163   1.484       .  S
C81          C82   1.397       .  A
C81          C86   1.401       .  A
C82          H87   1.084       .  S
C82          C83   1.398       .  A
C83         C146   1.484       .  S
C83          C84   1.400       .  A
C84          H88   1.079       .  S
C84          C85   1.414       .  A
C85          C86   1.415       .  A
C86          H89   1.079       .  S
C90          C95   1.414   1_655  A
C90         C895   1.409       .  A
C91          C92   1.412       .  A
C91         C894   1.409       .  A
C91          C96   1.450       .  S
C92         C897   1.420       .  A
C92          C99   1.451       .  S
C93          C94   1.417   1_655  A
C93         C896   1.421       .  A
C94          C95   1.412       .  A
C94          C97   1.450       .  S
C95          C98   1.453       .  S
C96         N103   1.157       .  T
C97         N102   1.157       .  T
C98         N100   1.157       .  T
C99         N101   1.158       .  T
C104        C105   1.413   1_655  A
C104        C913   1.415       .  A
C105        C106   1.411       .  A
C105        C110   1.451       .  S
C106        C107   1.410       .  A
C106        C113   1.449       .  S
C107        C845   1.480       .  S
C107        C912   1.409   1_455  A
C108        C109   1.411       .  A
C108        C911   1.409       .  A
C108        C111   1.451       .  S
C109        C908   1.415       .  A
C109        C112   1.449       .  S
C110        N117   1.157       .  T
C111        N116   1.157       .  T
C112        N114   1.157       .  T
C113        N115   1.157       .  T
C118        C123   1.412       .  A
C118        C923   1.410   1_455  A
C119        C120   1.411       .  A
C119        C922   1.410       .  A
C119        C124   1.451       .  S
C120        C925   1.421       .  A
C120        C127   1.452       .  S
C121        C122   1.417       .  A
C121        C924   1.420   1_455  A
C122        C123   1.416       .  A
C122        C125   1.448       .  S
C123        C126   1.451       .  S
C124        N131   1.157       .  T
C125        N130   1.157       .  T
C126        N128   1.157       .  T
C127        N129   1.158       .  T
C132        C133   1.418   1_655  A
C132        C941   1.414       .  A
C133        C134   1.411       .  A
C133        C138   1.451       .  S
C134        C135   1.410       .  A
C134        C141   1.452       .  S
C135        C825   1.479       .  S
C135        C940   1.409   1_455  A
C136        C137   1.412       .  A
C136        C939   1.409       .  A
C136        C139   1.451       .  S
C137        C936   1.414       .  A
C137        C140   1.449       .  S
C138        N145   1.157       .  T
C139        N144   1.157       .  T
C140        N142   1.157       .  T
C141        N143   1.157       .  T
C146        C147   1.410       .  A
C146        C553   1.410       .  A
C147        C148   1.412       .  A
C147        C152   1.450       .  S
C148        C149   1.414       .  A
C148        C155   1.449       .  S
C149        C552   1.415       .  A
C150        C151   1.409       .  A
C150        C551   1.415   1_545  A
C150        C153   1.451       .  S
C151        C548   1.410   1_545  A
C151        C154   1.452       .  S
C152        N159   1.157       .  T
C153        N158   1.157       .  T
C154        N156   1.157       .  T
C155        N157   1.157       .  T
C160        C433   1.485       .  S
C160        C161   1.415       .  A
C160        C567   1.413       .  A
C161        C162   1.409       .  A
C161        C166   1.450       .  S
C162        C163   1.410       .  A
C162        C169   1.452       .  S
C163        C566   1.410       .  A
C164        C165   1.413       .  A
C164        C565   1.410   1_545  A
C164        C167   1.450       .  S
C165        C562   1.413   1_545  A
C165        C168   1.449       .  S
C166        N173   1.157       .  T
C167        N172   1.157       .  T
C168        N170   1.157       .  T
C169        N171   1.157       .  T
C174        C179   1.411       .  A
C174        C577   1.408       .  A
C175        C176   1.411       .  A
C175        C576   1.408       .  A
C175        C180   1.451       .  S
C176        C579   1.418       .  A
C176        C183   1.451       .  S
C177        C178   1.416       .  A
C177        C578   1.418       .  A
C178        C179   1.411       .  A
C178        C181   1.451       .  S
C179        C182   1.452       .  S
C180        N187   1.157       .  T
C181        N186   1.158       .  T
C182        N184   1.157       .  T
C183        N185   1.157       .  T
C188        C193   1.411       .  A
C188        C591   1.411       .  A
C189        C190   1.409       .  A
C189        C590   1.411   1_545  A
C189        C194   1.451       .  S
C190        C593   1.410   1_545  A
C190        C197   1.451       .  S
C191        C403   1.476       .  S
C191        C192   1.412       .  A
C191        C592   1.410       .  A
C192        C193   1.409       .  A
C192        C195   1.451       .  S
C193        C196   1.451       .  S
C194        N201   1.157       .  T
C195        N200   1.157       .  T
C196        N198   1.157       .  T
C197        N199   1.157       .  T
C202        N220   1.353   1_565  A
C202        C641   1.455       .  S
C202        C794   1.482       .  S
N203        N622   1.327       .  A
N203        N225   1.321       .  A
N203       Co240   2.096       .  S
C204       N1033   1.343       .  A
C204        C242   1.460       .  S
C204        H249   1.081       .  S
H205        C246   1.081       .  S
C206        N230   1.334       .  A
C206       C1014   1.458       .  S
C206        H235   1.081       .  S
Co207       N215   2.085       .  S
Co207       N223   2.083       .  S
Co207      Cl452   2.444   1_556  S
N208        C648   1.342       .  A
N208        N215   1.321       .  A
N208      Co1415   2.089       .  S
Co209      N1414   2.090       .  S
Co209       N212   2.097   1_565  S
Co209      N1435   2.094       .  S
Co209       N216   2.082   1_565  S
Co209      Cl854   2.463   1_556  S
C210        N248   1.356       .  A
C210       C1010   1.459   1_455  S
C210        C294   1.496   1_455  S
N211        N218   1.318       .  A
N211        N241   1.323       .  A
N211       Co244   2.081       .  S
N212        N230   1.319       .  A
N212       N1052   1.328       .  A
N213       C1046   1.348       .  A
N213        N223   1.325       .  A
H214        C239   1.082       .  S
N215        N236   1.324       .  A
N216        N234   1.320       .  A
N216        N623   1.324   1_545  A
C217        N221   1.350       .  A
C217        C647   1.458       .  S
C217        C350   1.483       .  S
N218       C1037   1.342       .  A
N218      Co1446   2.085   1_545  S
C219        N247   1.341       .  A
C219       C1026   1.455       .  S
C219        H253   1.081       .  S
N220        N605   1.327   1_545  A
N221        N618   1.324       .  A
C222        N243   1.348       .  A
C222       C1023   1.455       .  S
C222       C1140   1.476       .  S
N223        N229   1.320       .  A
N224        C652   1.345       .  A
N224        N226   1.320   1_565  A
N224      Co1446   2.090       .  S
N225        C239   1.339       .  A
N226        N254   1.322       .  A
N226       Co244   2.084       .  S
H227        C250   1.082       .  S
H228        C245   1.082       .  S
N229       C1008   1.343   1_455  A
N229      Co1415   2.094       .  S
N231       N1047   1.325       .  A
N231        N247   1.320       .  A
N231       Co240   2.087       .  S
C232        N638   1.349       .  A
C232        C246   1.461   1_565  S
C232        C763   1.484       .  S
C233       N1022   1.342       .  A
C233        C252   1.467   1_455  S
C233        H237   1.081       .  S
N234        C245   1.339       .  A
N236        C634   1.349       .  A
C238        N656   1.349       .  A
C238        C250   1.464       .  S
C238        C378   1.489       .  S
C239        C604   1.455       .  S
Co240      N1424   2.087       .  S
Co240      N1430   2.089   1_455  S
Co240      Cl653   2.466       .  S
N241       C1056   1.350       .  A
C242       N1017   1.348       .  A
C242       C1112   1.481       .  S
N243       N1035   1.325       .  A
Co244     Cl1055   2.430   1_545  S
C245        C619   1.459       .  S
C246        N610   1.342   1_545  A
N248       N1016   1.328       .  A
C250        N626   1.345       .  A
Cl251      Co408   2.442       .  S
Cl251      Co812   2.464       .  S
Cl251      Co642   2.466       .  S
Cl251     Co1048   2.430   1_465  S
C252       N1045   1.349       .  A
C252        C322   1.496       .  S
N254        C640   1.349   1_545  A
C255        C333   1.492       .  S
C255        C256   1.406   1_455  A
C255        C260   1.401       .  A
C256        H261   1.078   1_655  S
C256        C257   1.415       .  A
C257        C268   1.512       .  S
C257        C258   1.415       .  A
C258        H262   1.078       .  S
C258        C259   1.400       .  A
C259        C319   1.485       .  S
C259        C260   1.397   1_655  A
C260        H263   1.084       .  S
C264        C305   1.492       .  S
C264        C265   1.401       .  A
C264        C269   1.405       .  A
C265        H270   1.084       .  S
C265        C266   1.403       .  A
C266        C291   1.494       .  S
C266        C267   1.402       .  A
C267        H271   1.077       .  S
C267        C268   1.414       .  A
C268        C269   1.415       .  A
C269        H272   1.078       .  S
C273        C389   1.482       .  S
C273        C274   1.398       .  A
C273        C278   1.400       .  A
C274        H279   1.084       .  S
C274        C275   1.397       .  A
C275        C375   1.488       .  S
C275        C276   1.403       .  A
C276        H280   1.079       .  S
C276        C277   1.417       .  A
C277        C286   1.510       .  S
C277        C278   1.413       .  A
C278        H281   1.079       .  S
C282        C364   1.484       .  S
C282        C283   1.397       .  A
C282        C287   1.403       .  A
C283        H288   1.084       .  S
C283        C284   1.396       .  A
C284        C347   1.480       .  S
C284        C285   1.399       .  A
C285        H289   1.079       .  S
C285        C286   1.413       .  A
C286        C287   1.417       .  A
C287        H290   1.079       .  S
C291       C1096   1.411       .  A
C291        C296   1.416   1_655  A
C292       C1095   1.410       .  A
C292        C293   1.409       .  A
C292        C297   1.451       .  S
C293       C1098   1.419       .  A
C293        C300   1.452       .  S
C294       C1097   1.419       .  A
C294        C295   1.415   1_655  A
C295        C296   1.415       .  A
C295        C298   1.449       .  S
C296        C299   1.451       .  S
C297        N304   1.157       .  T
C298        N303   1.157       .  T
C299        N301   1.157       .  T
C300        N302   1.158       .  T
C305        C306   1.414   1_655  A
C305       C1114   1.414       .  A
C306        C307   1.411       .  A
C306        C311   1.451       .  S
C307        C308   1.410   1_455  A
C307        C314   1.450       .  S
C308       C1046   1.482   1_655  S
C308       C1113   1.410       .  A
C309       C1112   1.410       .  A
C309        C310   1.413       .  A
C309        C312   1.450       .  S
C310       C1109   1.414       .  A
C310        C313   1.448       .  S
C311        N318   1.157       .  T
C312        N317   1.157       .  T
C313        N315   1.157       .  T
C314        N316   1.157       .  T
C319       C1124   1.408       .  A
C319        C324   1.409   1_655  A
C320       C1123   1.408       .  A
C320        C321   1.412       .  A
C320        C325   1.451       .  S
C321       C1126   1.421       .  A
C321        C328   1.451       .  S
C322       C1125   1.421       .  A
C322        C323   1.417   1_655  A
C323        C324   1.411       .  A
C323        C326   1.449       .  S
C324        C327   1.452       .  S
C325        N332   1.157       .  T
C326        N331   1.157       .  T
C327        N329   1.157       .  T
C328        N330   1.157       .  T
C333        C334   1.415       .  A
C333       C1142   1.416   1_455  A
C334        C335   1.411       .  A
C334        C339   1.451       .  S
C335        C336   1.410       .  A
C335        C342   1.449       .  S
C336       C1026   1.478       .  S
C336       C1141   1.408   1_455  A
C337       C1140   1.408       .  A
C337        C338   1.410       .  A
C337        C340   1.451       .  S
C338       C1137   1.416       .  A
C338        C341   1.450       .  S
C339        N346   1.157       .  T
C340        N345   1.157       .  T
C341        N343   1.157       .  T
C342        N344   1.156       .  T
C347        C348   1.410       .  A
C347        C754   1.408       .  A
C348        C349   1.408       .  A
C348        C353   1.452       .  S
C349        C350   1.413       .  A
C349        C356   1.450       .  S
C350        C753   1.416       .  A
C351        C752   1.416       .  A
C351        C352   1.411       .  A
C351        C354   1.451       .  S
C352        C749   1.409       .  A
C352        C355   1.451       .  S
C353        N360   1.157       .  T
C354        N359   1.157       .  T
C355        N357   1.157       .  T
C356        N358   1.157       .  T
C361        C634   1.484       .  S
C361        C362   1.415       .  A
C361        C768   1.412       .  A
C362        C363   1.411       .  A
C362        C367   1.451       .  S
C363        C364   1.410       .  A
C363        C370   1.451       .  S
C364        C767   1.412       .  A
C365        C766   1.412   1_545  A
C365        C366   1.411       .  A
C365        C368   1.451       .  S
C366        C763   1.412   1_545  A
C366        C369   1.450       .  S
C367        N374   1.157       .  T
C368        N373   1.157       .  T
C369        N371   1.157       .  T
C370        N372   1.157       .  T
C375        C778   1.410       .  A
C375        C380   1.411       .  A
C376        C777   1.411   1_545  A
C376        C377   1.409       .  A
C376        C381   1.451       .  S
C377        C780   1.416   1_545  A
C377        C384   1.452       .  S
C378        C779   1.416       .  A
C378        C379   1.415       .  A
C379        C380   1.415       .  A
C379        C382   1.450       .  S
C380        C383   1.450       .  S
C381        N388   1.157       .  T
C382        N387   1.157       .  T
C383        N385   1.157       .  T
C384        N386   1.157       .  T
C389        C792   1.410       .  A
C389        C394   1.410       .  A
C390        C791   1.410   1_545  A
C390        C391   1.412       .  A
C390        C395   1.450       .  S
C391        C794   1.411   1_545  A
C391        C398   1.449       .  S
C392        C604   1.481       .  S
C392        C793   1.411       .  A
C392        C393   1.412       .  A
C393        C394   1.409       .  A
C393        C396   1.449       .  S
C394        C397   1.452       .  S
C395        N402   1.157       .  T
C396        N401   1.157       .  T
C397        N399   1.157       .  T
C398        N400   1.157       .  T
C403        N421   1.350       .  A
N404        N426   1.321       .  A
N404       Co441   2.088       .  S
C405       N1234   1.342       .  A
C405        C443   1.458       .  S
C405        H450   1.081       .  S
H406        C447   1.081       .  S
C407        N431   1.336       .  A
C407       C1215   1.462       .  S
C407        H436   1.080       .  S
Co408       N627   2.081       .  S
Co408       N416   2.077       .  S
Co408       N649   2.083       .  S
Co408       N424   2.085       .  S
N409        N416   1.321       .  A
N409       Co812   2.096       .  S
Co410       N811   2.096       .  S
Co410       N413   2.096       .  S
Co410       N832   2.088       .  S
Co410       N417   2.087       .  S
Co410     Cl1457   2.463       .  S
C411        N449   1.355   1_655  A
C411       C1211   1.462       .  S
C411        C495   1.499       .  S
N412        N419   1.318       .  A
N412        N442   1.322       .  A
N412       Co445   2.079       .  S
N413        N431   1.319       .  A
N413       N1253   1.327       .  A
N414       C1247   1.349       .  A
N414        N424   1.325       .  A
H415        C440   1.082       .  S
N416        N437   1.322       .  A
N417        N435   1.320       .  A
C418        N422   1.351   1_545  A
C418        C551   1.486   1_545  S
N419       C1238   1.346       .  A
N419       Co843   2.093       .  S
C420        N448   1.341       .  A
C420       C1227   1.456       .  S
C420        H454   1.081       .  S
C423        N444   1.349       .  A
C423       C1224   1.457       .  S
C423       C1341   1.479       .  S
N424        N430   1.321       .  A
N425        N427   1.319       .  A
N425       Co843   2.080       .  S
N426        C440   1.339       .  A
N426       Co609   2.079   1_554  S
N427        N455   1.324       .  A
N427       Co445   2.086       .  S
H428        C451   1.081       .  S
H429        C446   1.082       .  S
N430       C1209   1.341   1_455  A
N430       Co812   2.088       .  S
N431       Co646   2.076       .  S
N432       N1248   1.326   1_455  A
N432        N448   1.321       .  A
N432       Co441   2.092       .  S
C433        C447   1.464       .  S
C434       N1223   1.347       .  A
C434        C453   1.471       .  S
C434        H438   1.081       .  S
N435        C446   1.339       .  A
N435       Co646   2.080       .  S
C439        C451   1.462   1_545  S
C439        C579   1.490       .  S
Co441       N821   2.096   1_565  S
Co441       N827   2.082   1_465  S
N442       C1257   1.349       .  A
C443       N1218   1.348       .  A
C443       C1313   1.480       .  S
N444       N1236   1.325       .  A
Co445       N632   2.070   1_554  S
Co445       N636   2.080   1_554  S
Co445     Cl1256   2.429       .  S
N448       Co609   2.082   1_554  S
N449       N1217   1.326   1_455  A
Cl452     Co1415   2.463   1_554  S
Cl452     Co1249   2.429   1_455  S
C453       N1246   1.349   1_455  A
C453        C523   1.501       .  S
C456        C534   1.496       .  S
C456        C457   1.404       .  A
C456        C461   1.404       .  A
C457        H462   1.079       .  S
C457        C458   1.413       .  A
C458        C469   1.511       .  S
C458        C459   1.415       .  A
C459        H463   1.078   1_655  S
C459        C460   1.402   1_655  A
C460        C520   1.494       .  S
C460        C461   1.403   1_455  A
C461        H464   1.084   1_655  S
C465        C506   1.491       .  S
C465        C466   1.401       .  A
C465        C470   1.405       .  A
C466        H471   1.084       .  S
C466        C467   1.400       .  A
C467        C492   1.491       .  S
C467        C468   1.402       .  A
C468        H472   1.079       .  S
C468        C469   1.412       .  A
C469        C470   1.415       .  A
C470        H473   1.079   1_655  S
C474        C590   1.481       .  S
C474        C475   1.396       .  A
C474        C479   1.400       .  A
C475        H480   1.084       .  S
C475        C476   1.396   1_565  A
C476        C576   1.483       .  S
C476        C477   1.402       .  A
C477        H481   1.079       .  S
C477        C478   1.415   1_545  A
C478        C487   1.508       .  S
C478        C479   1.413       .  A
C479        H482   1.079       .  S
C483        C565   1.484   1_545  S
C483        C484   1.397   1_545  A
C483        C488   1.401       .  A
C484        H489   1.084       .  S
C484        C485   1.398       .  A
C485        C548   1.484       .  S
C485        C486   1.400       .  A
C486        H490   1.079       .  S
C486        C487   1.414       .  A
C487        C488   1.415   1_565  A
C488        H491   1.079       .  S
C492       C1297   1.409       .  A
C492        C497   1.414   1_655  A
C493       C1296   1.409       .  A
C493        C494   1.411       .  A
C493        C498   1.450       .  S
C494       C1299   1.421       .  A
C494        C501   1.451       .  S
C495       C1298   1.421       .  A
C495        C496   1.417   1_655  A
C496        C497   1.412       .  A
C496        C499   1.450       .  S
C497        C500   1.453       .  S
C498        N505   1.157       .  T
C499        N504   1.157       .  T
C500        N502   1.157       .  T
C501        N503   1.158       .  T
C506        C507   1.414   1_655  A
C506       C1315   1.415       .  A
C507        C508   1.411       .  A
C507        C512   1.451       .  S
C508        C509   1.410       .  A
C508        C515   1.449       .  S
C509       C1247   1.479       .  S
C509       C1314   1.409   1_455  A
C510       C1313   1.409       .  A
C510        C511   1.411       .  A
C510        C513   1.451       .  S
C511       C1310   1.415       .  A
C511        C514   1.449       .  S
C512        N519   1.157       .  T
C513        N518   1.157       .  T
C514        N516   1.157       .  T
C515        N517   1.157       .  T
C520       C1325   1.410   1_455  A
C520        C525   1.412       .  A
C521       C1324   1.410       .  A
C521        C522   1.411       .  A
C521        C526   1.451       .  S
C522       C1327   1.420       .  A
C522        C529   1.452       .  S
C523       C1326   1.420   1_455  A
C523        C524   1.417       .  A
C524        C525   1.416       .  A
C524        C527   1.448       .  S
C525        C528   1.451       .  S
C526        N533   1.157       .  T
C527        N532   1.157       .  T
C528        N530   1.157       .  T
C529        N531   1.158       .  T
C534        C535   1.418   1_655  A
C534       C1343   1.414       .  A
C535        C536   1.412       .  A
C535        C540   1.451       .  S
C536        C537   1.410   1_455  A
C536        C543   1.452       .  S
C537       C1227   1.480   1_655  S
C537       C1342   1.409       .  A
C538       C1341   1.409       .  A
C538        C539   1.412       .  A
C538        C541   1.451       .  S
C539       C1338   1.414       .  A
C539        C542   1.449       .  S
C540        N547   1.157       .  T
C541        N546   1.157       .  T
C542        N544   1.157       .  T
C543        N545   1.157       .  T
C548        C549   1.410       .  A
C549        C550   1.412       .  A
C549        C554   1.450       .  S
C550        C551   1.414       .  A
C550        C557   1.449       .  S
C552        C553   1.409       .  A
C552        C555   1.451       .  S
C553        C556   1.452       .  S
C554        N561   1.157       .  T
C555        N560   1.157       .  T
C556        N558   1.157       .  T
C557        N559   1.157       .  T
C562        C563   1.415       .  A
C563        C564   1.409       .  A
C563        C568   1.451       .  S
C564        C565   1.410       .  A
C564        C571   1.452       .  S
C566        C567   1.413       .  A
C566        C569   1.450       .  S
C567        C570   1.449       .  S
C568        N575   1.157       .  T
C569        N574   1.157       .  T
C570        N572   1.157       .  T
C571        N573   1.157       .  T
C576        C581   1.411   1_545  A
C577        C578   1.411       .  A
C577        C582   1.451       .  S
C578        C585   1.451       .  S
C579        C580   1.416   1_545  A
C580        C581   1.411       .  A
C580        C583   1.451       .  S
C581        C584   1.452       .  S
C582        N589   1.157       .  T
C583        N588   1.158       .  T
C584        N586   1.157       .  T
C585        N587   1.157       .  T
C590        C595   1.411       .  A
C591        C592   1.409       .  A
C591        C596   1.451       .  S
C592        C599   1.451       .  S
C593        C594   1.412       .  A
C594        C595   1.409       .  A
C594        C597   1.451       .  S
C595        C598   1.451       .  S
C596        N603   1.157       .  T
C597        N602   1.157       .  T
C598        N600   1.157       .  T
C599        N601   1.157       .  T
C604        N622   1.352       .  A
N605        N627   1.321       .  A
N605       Co642   2.098       .  S
C606       N1435   1.343       .  A
C606        C644   1.460       .  S
C606        H651   1.081       .  S
H607        C648   1.081       .  S
C608        N632   1.334       .  A
C608       C1416   1.458       .  S
C608        H637   1.081       .  S
Co609       N617   2.087       .  S
Co609       N625   2.081       .  S
N610        N617   1.321       .  A
N610      Co1013   2.089       .  S
Co611      N1012   2.091       .  S
Co611       N614   2.097       .  S
Co611      N1033   2.095       .  S
Co611       N618   2.082       .  S
Co611     Cl1256   2.463   1_556  S
C612        N650   1.356       .  A
C612       C1412   1.459   1_455  S
C612        C696   1.496   1_455  S
N613        N620   1.318       .  A
N613        N643   1.323       .  A
N613       Co646   2.080       .  S
N614        N632   1.319       .  A
N614       N1454   1.328       .  A
N615       C1448   1.348       .  A
N615        N625   1.325       .  A
H616        C641   1.082       .  S
N617        N638   1.324       .  A
N618        N636   1.320       .  A
C619        N623   1.350   1_545  A
C619        C752   1.484       .  S
N620       C1439   1.342       .  A
N620      Co1044   2.086       .  S
C621        N649   1.341       .  A
C621       C1428   1.456       .  S
C621        H655   1.081       .  S
C624        N645   1.348       .  A
C624       C1425   1.456       .  S
C624       C1542   1.477       .  S
N625        N631   1.320       .  A
N626        N628   1.320       .  A
N626      Co1044   2.088       .  S
N627        C641   1.339       .  A
N628        N656   1.322       .  A
N628       Co646   2.084       .  S
H629        C652   1.082       .  S
H630        C647   1.082       .  S
N631       C1410   1.343   1_455  A
N631      Co1013   2.094       .  S
N633       N1449   1.325       .  A
N633        N649   1.321       .  A
N633       Co642   2.086       .  S
C634        C648   1.461       .  S
C635       N1424   1.343       .  A
C635        C654   1.467   1_455  S
C635        H639   1.081       .  S
N636        C647   1.339       .  A
C640        C652   1.465       .  S
C640        C780   1.490       .  S
Co642      N1022   2.087   1_565  S
Co642      N1028   2.090   1_455  S
N643       C1458   1.349       .  A
C644       N1419   1.348       .  A
C644       C1514   1.481       .  S
N645       N1437   1.325       .  A
Co646     Cl1457   2.430       .  S
N650       N1418   1.328       .  A
Cl653     Co1214   2.464       .  S
Cl653     Co1450   2.429   1_455  S
C654       N1447   1.349       .  A
C654        C724   1.496       .  S
C657        C735   1.493       .  S
C657        C658   1.406   1_455  A
C657        C662   1.401       .  A
C658        H663   1.078   1_655  S
C658        C659   1.416       .  A
C659        C670   1.513       .  S
C659        C660   1.415       .  A
C660        H664   1.078       .  S
C660        C661   1.400       .  A
C661        C721   1.485       .  S
C661        C662   1.397   1_655  A
C662        H665   1.084       .  S
C666        C707   1.492       .  S
C666        C667   1.401       .  A
C666        C671   1.405       .  A
C667        H672   1.084       .  S
C667        C668   1.403       .  A
C668        C693   1.495       .  S
C668        C669   1.402       .  A
C669        H673   1.077       .  S
C669        C670   1.414       .  A
C670        C671   1.415       .  A
C671        H674   1.078       .  S
C675        C791   1.483       .  S
C675        C676   1.398       .  A
C675        C680   1.400       .  A
C676        H681   1.084       .  S
C676        C677   1.398       .  A
C677        C777   1.488       .  S
C677        C678   1.403       .  A
C678        H682   1.079       .  S
C678        C679   1.417       .  A
C679        C688   1.510       .  S
C679        C680   1.414       .  A
C680        H683   1.079   1_565  S
C684        C766   1.485       .  S
C684        C685   1.397       .  A
C684        C689   1.403       .  A
C685        H690   1.084       .  S
C685        C686   1.396   1_565  A
C686        C749   1.481       .  S
C686        C687   1.400       .  A
C687        H691   1.079       .  S
C687        C688   1.413   1_545  A
C688        C689   1.417       .  A
C689        H692   1.079       .  S
C693       C1498   1.411       .  A
C693        C698   1.416   1_655  A
C694       C1497   1.411       .  A
C694        C695   1.410       .  A
C694        C699   1.451       .  S
C695       C1500   1.419       .  A
C695        C702   1.452       .  S
C696       C1499   1.419       .  A
C696        C697   1.415   1_655  A
C697        C698   1.415       .  A
C697        C700   1.449       .  S
C698        C701   1.451       .  S
C699        N706   1.156       .  T
C700        N705   1.157       .  T
C701        N703   1.157       .  T
C702        N704   1.158       .  T
C707        C708   1.415   1_655  A
C707       C1516   1.414       .  A
C708        C709   1.411       .  A
C708        C713   1.451       .  S
C709        C710   1.410   1_455  A
C709        C716   1.450       .  S
C710       C1448   1.481   1_655  S
C710       C1515   1.410       .  A
C711       C1514   1.409       .  A
C711        C712   1.412       .  A
C711        C714   1.450       .  S
C712       C1511   1.414       .  A
C712        C715   1.448       .  S
C713        N720   1.157       .  T
C714        N719   1.157       .  T
C715        N717   1.157       .  T
C716        N718   1.157       .  T
C721       C1526   1.408       .  A
C721        C726   1.410   1_655  A
C722       C1525   1.408       .  A
C722        C723   1.412       .  A
C722        C727   1.451       .  S
C723       C1528   1.421       .  A
C723        C730   1.451       .  S
C724       C1527   1.421       .  A
C724        C725   1.417   1_655  A
C725        C726   1.411       .  A
C725        C728   1.449       .  S
C726        C729   1.452       .  S
C727        N734   1.157       .  T
C728        N733   1.157       .  T
C729        N731   1.157       .  T
C730        N732   1.157       .  T
C735        C736   1.415       .  A
C735       C1544   1.416   1_455  A
C736        C737   1.411       .  A
C736        C741   1.451       .  S
C737        C738   1.410       .  A
C737        C744   1.449       .  S
C738       C1428   1.478       .  S
C738       C1543   1.408   1_455  A
C739       C1542   1.408       .  A
C739        C740   1.411       .  A
C739        C742   1.451       .  S
C740       C1539   1.416       .  A
C740        C743   1.450       .  S
C741        N748   1.157       .  T
C742        N747   1.157       .  T
C743        N745   1.157       .  T
C744        N746   1.156       .  T
C749        C750   1.410   1_545  A
C750        C751   1.409       .  A
C750        C755   1.452       .  S
C751        C752   1.413   1_565  A
C751        C758   1.450       .  S
C753        C754   1.410       .  A
C753        C756   1.451       .  S
C754        C757   1.451       .  S
C755        N762   1.157       .  T
C756        N761   1.157       .  T
C757        N759   1.157       .  T
C758        N760   1.157       .  T
C763        C764   1.415       .  A
C764        C765   1.411       .  A
C764        C769   1.451       .  S
C765        C766   1.410       .  A
C765        C772   1.451       .  S
C767        C768   1.411       .  A
C767        C770   1.451       .  S
C768        C771   1.450       .  S
C769        N776   1.157       .  T
C770        N775   1.157       .  T
C771        N773   1.157       .  T
C772        N774   1.157       .  T
C777        C782   1.412       .  A
C778        C779   1.409       .  A
C778        C783   1.451       .  S
C779        C786   1.452       .  S
C780        C781   1.415       .  A
C781        C782   1.415       .  A
C781        C784   1.450       .  S
C782        C785   1.450       .  S
C783        N790   1.157       .  T
C784        N789   1.157       .  T
C785        N787   1.157       .  T
C786        N788   1.157       .  T
C791        C796   1.411       .  A
C792        C793   1.411       .  A
C792        C797   1.450       .  S
C793        C800   1.449       .  S
C794        C795   1.413       .  A
C795        C796   1.409       .  A
C795        C798   1.449       .  S
C796        C799   1.452       .  S
C797        N804   1.157       .  T
C798        N803   1.157       .  T
C799        N801   1.157       .  T
C800        N802   1.157       .  T
C805        N823   1.350       .  A
C805       C1244   1.453       .  S
C805       C1397   1.476       .  S
N806       N1225   1.325       .  A
N806        N828   1.321       .  A
N806       Co843   2.084       .  S
C807        C845   1.458   1_655  S
C807        H852   1.081       .  S
H808        C849   1.081       .  S
C809        N833   1.336       .  A
C809        H838   1.080       .  S
Co810      N1029   2.082       .  S
Co810       N818   2.076       .  S
Co810      N1051   2.081       .  S
Co810       N826   2.084       .  S
Co810     Cl1457   2.442       .  S
N811       C1251   1.344       .  A
N811        N818   1.321       .  A
Co812       N815   2.096   1_465  S
Co812       N819   2.087   1_455  S
C813        N851   1.355       .  A
C813        C897   1.499       .  S
N814        N821   1.318   1_655  A
N814        N844   1.322       .  A
N814       Co847   2.080       .  S
N815        N833   1.319       .  A
N816        N826   1.325       .  A
H817        C842   1.081       .  S
N818        N839   1.322       .  A
N819        N837   1.320   1_565  A
N819       N1226   1.326       .  A
C820        N824   1.351       .  A
C820       C1250   1.458       .  S
C820        C953   1.486       .  S
C822        N850   1.341       .  A
C822        H856   1.081       .  S
N823       N1208   1.325       .  A
N824       N1221   1.326       .  A
C825        N846   1.349   1_455  A
N826        N832   1.321       .  A
N827       C1255   1.341   1_545  A
N827        N829   1.319       .  A
N828        C842   1.338       .  A
N828      Co1011   2.079   1_554  S
N829        N857   1.324       .  A
N829       Co847   2.086       .  S
H830        C853   1.081       .  S
H831        C848   1.082       .  S
N833      Co1048   2.076       .  S
N834        N850   1.320       .  A
N834       Co843   2.090       .  S
C835       N1241   1.347       .  A
C835        C849   1.463   1_565  S
C835       C1366   1.484       .  S
C836        C855   1.471       .  S
C836        H840   1.081       .  S
N837        C848   1.339       .  A
N837      Co1048   2.080       .  S
N839       C1237   1.346       .  A
C841       N1259   1.351       .  A
C841        C853   1.462       .  S
C841        C981   1.490       .  S
C842       C1207   1.454       .  S
Co843     Cl1256   2.464       .  S
Co847      N1034   2.071   1_554  S
Co847      N1038   2.083   1_554  S
C848       C1222   1.459       .  S
C849       N1213   1.344   1_545  A
N850      Co1011   2.083   1_554  S
C853       N1229   1.341       .  A
Cl854     Co1413   2.443   1_554  S
Cl854     Co1245   2.464       .  S
C855        C925   1.500       .  S
N857       C1243   1.351       .  A
C858        C936   1.496       .  S
C858        C859   1.405       .  A
C858        C863   1.404       .  A
C859        H864   1.079       .  S
C859        C860   1.414       .  A
C860        C871   1.511       .  S
C860        C861   1.415       .  A
C861        H865   1.078       .  S
C861        C862   1.401       .  A
C862        C922   1.493       .  S
C862        C863   1.402       .  A
C863        H866   1.084       .  S
C867        C908   1.491       .  S
C867        C868   1.401       .  A
C867        C872   1.405       .  A
C868        H873   1.084       .  S
C868        C869   1.401       .  A
C869        C894   1.492       .  S
C869        C870   1.402       .  A
C870        H874   1.079       .  S
C870        C871   1.413       .  A
C871        C872   1.414       .  A
C872        H875   1.079       .  S
C876        C992   1.479       .  S
C876        C877   1.394       .  A
C876        C881   1.400       .  A
C877        H882   1.084       .  S
C877        C878   1.394       .  A
C878        C978   1.485       .  S
C878        C879   1.403       .  A
C879        H883   1.073       .  S
C879        C880   1.419       .  A
C880        C889   1.518       .  S
C880        C881   1.416       .  A
C881        H884   1.073       .  S
C885        C967   1.484       .  S
C885        C886   1.395       .  A
C885        C890   1.401       .  A
C886        H891   1.084       .  S
C886        C887   1.395       .  A
C887        C950   1.483       .  S
C887        C888   1.401       .  A
C888        H892   1.073       .  S
C888        C889   1.416       .  A
C889        C890   1.419       .  A
C890        H893   1.073       .  S
C894        C899   1.414       .  A
C895        C896   1.412       .  A
C895        C900   1.450       .  S
C896        C903   1.451       .  S
C897        C898   1.417       .  A
C898        C899   1.413       .  A
C898        C901   1.450       .  S
C899        C902   1.453       .  S
C900        N907   1.157       .  T
C901        N906   1.157       .  T
C902        N904   1.157       .  T
C903        N905   1.158       .  T
C908        C909   1.414       .  A
C909        C910   1.411       .  A
C909        C914   1.451       .  S
C910        C911   1.410       .  A
C910        C917   1.449       .  S
C912        C913   1.412       .  A
C912        C915   1.451       .  S
C913        C916   1.449       .  S
C914        N921   1.157       .  T
C915        N920   1.157       .  T
C916        N918   1.157       .  T
C917        N919   1.157       .  T
C922        C927   1.412       .  A
C923        C924   1.411       .  A
C923        C928   1.451       .  S
C924        C931   1.452       .  S
C925        C926   1.417       .  A
C926        C927   1.416       .  A
C926        C929   1.448       .  S
C927        C930   1.451       .  S
C928        N935   1.157       .  T
C929        N934   1.157       .  T
C930        N932   1.157       .  T
C931        N933   1.158       .  T
C936        C937   1.418       .  A
C937        C938   1.412       .  A
C937        C942   1.451       .  S
C938        C939   1.410       .  A
C938        C945   1.452       .  S
C940        C941   1.412       .  A
C940        C943   1.451       .  S
C941        C944   1.449       .  S
C942        N949   1.157       .  T
C943        N948   1.157       .  T
C944        N946   1.157       .  T
C945        N947   1.157       .  T
C950        C951   1.410       .  A
C950       C1357   1.409       .  A
C951        C952   1.410       .  A
C951        C956   1.451       .  S
C952        C953   1.413       .  A
C952        C959   1.449       .  S
C953       C1356   1.416       .  A
C954       C1355   1.415   1_545  A
C954        C955   1.409       .  A
C954        C957   1.451       .  S
C955       C1352   1.410   1_545  A
C955        C958   1.452       .  S
C956        N963   1.157       .  T
C957        N962   1.157       .  T
C958        N960   1.157       .  T
C959        N961   1.157       .  T
C964       C1237   1.484       .  S
C964        C965   1.415       .  A
C964       C1371   1.412       .  A
C965        C966   1.410       .  A
C965        C970   1.450       .  S
C966        C967   1.409       .  A
C966        C973   1.451       .  S
C967       C1370   1.411       .  A
C968       C1369   1.410   1_545  A
C968        C969   1.413       .  A
C968        C971   1.450       .  S
C969       C1366   1.413   1_545  A
C969        C972   1.450       .  S
C970        N977   1.157       .  T
C971        N976   1.157       .  T
C972        N974   1.157       .  T
C973        N975   1.157       .  T
C978       C1381   1.409       .  A
C978        C983   1.410       .  A
C979       C1380   1.408       .  A
C979        C980   1.411       .  A
C979        C984   1.451       .  S
C980       C1383   1.418       .  A
C980        C987   1.451       .  S
C981       C1382   1.417       .  A
C981        C982   1.417       .  A
C982        C983   1.413       .  A
C982        C985   1.451       .  S
C983        C986   1.451       .  S
C984        N991   1.157       .  T
C985        N990   1.158       .  T
C986        N988   1.157       .  T
C987        N989   1.157       .  T
C992       C1395   1.410       .  A
C992        C997   1.411       .  A
C993       C1394   1.411   1_545  A
C993        C994   1.408       .  A
C993        C998   1.451       .  S
C994       C1397   1.410   1_545  A
C994       C1001   1.451       .  S
C995       C1207   1.475       .  S
C995       C1396   1.411       .  A
C995        C996   1.411       .  A
C996        C997   1.407       .  A
C996        C999   1.451       .  S
C997       C1000   1.452       .  S
C998       N1005   1.157       .  T
C999       N1004   1.157       .  T
C1000      N1002   1.157       .  T
C1001      N1003   1.157       .  T
C1006      N1024   1.352   1_565  A
C1006      C1445   1.456       .  S
C1006      C1598   1.482       .  S
N1007      N1426   1.327       .  A
N1007      N1029   1.321       .  A
N1007     Co1044   2.095       .  S
C1008      C1046   1.460   1_655  S
C1008      H1053   1.081       .  S
H1009      C1050   1.081       .  S
C1010      N1034   1.334       .  A
C1010      H1039   1.081       .  S
Co1011     N1019   2.085       .  S
Co1011     N1027   2.082       .  S
Co1011    Cl1256   2.443   1_556  S
N1012      C1452   1.343       .  A
N1012      N1019   1.321       .  A
Co1013     N1016   2.097   1_565  S
Co1013     N1020   2.082   1_465  S
C1014      N1052   1.356       .  A
C1014      C1098   1.495       .  S
N1015      N1022   1.318   1_655  A
N1015      N1045   1.323       .  A
N1015     Co1048   2.080       .  S
N1016      N1034   1.319   1_455  A
N1017      N1027   1.325       .  A
H1018      C1043   1.082       .  S
N1019      N1040   1.324       .  A
N1020      N1038   1.320       .  A
N1020      N1427   1.324   1_545  A
C1021      N1025   1.350       .  A
C1021      C1451   1.459       .  S
C1021      C1154   1.484       .  S
C1023      N1051   1.340       .  A
C1023      H1057   1.081       .  S
N1024      N1409   1.327   1_545  A
N1025      N1422   1.324       .  A
C1026      N1047   1.348       .  A
N1027      N1033   1.321       .  A
N1028      C1456   1.345       .  A
N1028      N1030   1.320   1_565  A
N1029      C1043   1.339       .  A
N1030      N1058   1.322       .  A
N1030     Co1048   2.083       .  S
H1031      C1054   1.082       .  S
H1032      C1049   1.082       .  S
N1035      N1051   1.320       .  A
N1035     Co1044   2.085       .  S
C1036      N1442   1.349       .  A
C1036      C1050   1.461   1_565  S
C1036      C1567   1.485       .  S
C1037      C1056   1.467       .  S
C1037      H1041   1.081       .  S
N1038      C1049   1.340       .  A
N1040      C1438   1.348       .  A
C1042      N1460   1.349       .  A
C1042      C1054   1.464       .  S
C1042      C1182   1.489       .  S
C1043      C1408   1.456       .  S
Co1044    Cl1457   2.466       .  S
C1049      C1423   1.459       .  S
C1050      N1414   1.342   1_545  A
C1054      N1430   1.345       .  A
Cl1055    Co1212   2.442       .  S
Cl1055    Co1446   2.466       .  S
C1056      C1126   1.496       .  S
N1058      C1444   1.349   1_545  A
C1059      C1137   1.491       .  S
C1059      C1060   1.405       .  A
C1059      C1064   1.400       .  A
C1060      H1065   1.076       .  S
C1060      C1061   1.415       .  A
C1061      C1072   1.516       .  S
C1061      C1062   1.416       .  A
C1062      H1066   1.076       .  S
C1062      C1063   1.401       .  A
C1063      C1123   1.486       .  S
C1063      C1064   1.396       .  A
C1064      H1067   1.084       .  S
C1068      C1109   1.493       .  S
C1068      C1069   1.400       .  A
C1068      C1073   1.405       .  A
C1069      H1074   1.084       .  S
C1069      C1070   1.401       .  A
C1070      C1095   1.492       .  S
C1070      C1071   1.401       .  A
C1071      H1075   1.075       .  S
C1071      C1072   1.414       .  A
C1072      C1073   1.417       .  A
C1073      H1076   1.077       .  S
C1077      C1193   1.482       .  S
C1077      C1078   1.398       .  A
C1077      C1082   1.400       .  A
C1078      H1083   1.084       .  S
C1078      C1079   1.397       .  A
C1079      C1179   1.488       .  S
C1079      C1080   1.403       .  A
C1080      H1084   1.078       .  S
C1080      C1081   1.417       .  A
C1081      C1090   1.511       .  S
C1081      C1082   1.414       .  A
C1082      H1085   1.079       .  S
C1086      C1168   1.485       .  S
C1086      C1087   1.397       .  A
C1086      C1091   1.403       .  A
C1087      H1092   1.084       .  S
C1087      C1088   1.396       .  A
C1088      C1151   1.481       .  S
C1088      C1089   1.400       .  A
C1089      H1093   1.078       .  S
C1089      C1090   1.413       .  A
C1090      C1091   1.417       .  A
C1091      H1094   1.079       .  S
C1095      C1100   1.415       .  A
C1096      C1097   1.409       .  A
C1096      C1101   1.451       .  S
C1097      C1104   1.452       .  S
C1098      C1099   1.414       .  A
C1099      C1100   1.414       .  A
C1099      C1102   1.449       .  S
C1100      C1103   1.451       .  S
C1101      N1108   1.156       .  T
C1102      N1107   1.157       .  T
C1103      N1105   1.157       .  T
C1104      N1106   1.158       .  T
C1109      C1110   1.415       .  A
C1110      C1111   1.411       .  A
C1110      C1115   1.451       .  S
C1111      C1112   1.410       .  A
C1111      C1118   1.450       .  S
C1113      C1114   1.413       .  A
C1113      C1116   1.450       .  S
C1114      C1117   1.448       .  S
C1115      N1122   1.157       .  T
C1116      N1121   1.157       .  T
C1117      N1119   1.157       .  T
C1118      N1120   1.157       .  T
C1123      C1128   1.410       .  A
C1124      C1125   1.412       .  A
C1124      C1129   1.451       .  S
C1125      C1132   1.451       .  S
C1126      C1127   1.418       .  A
C1127      C1128   1.412       .  A
C1127      C1130   1.449       .  S
C1128      C1131   1.452       .  S
C1129      N1136   1.157       .  T
C1130      N1135   1.157       .  T
C1131      N1133   1.157       .  T
C1132      N1134   1.157       .  T
C1137      C1138   1.415       .  A
C1138      C1139   1.409       .  A
C1138      C1143   1.452       .  S
C1139      C1140   1.409       .  A
C1139      C1146   1.449       .  S
C1141      C1142   1.410       .  A
C1141      C1144   1.451       .  S
C1142      C1145   1.450       .  S
C1143      N1150   1.157       .  T
C1144      N1149   1.157       .  T
C1145      N1147   1.157       .  T
C1146      N1148   1.156       .  T
C1151      C1152   1.410       .  A
C1151      C1558   1.409       .  A
C1152      C1153   1.409       .  A
C1152      C1157   1.452       .  S
C1153      C1154   1.413       .  A
C1153      C1160   1.450       .  S
C1154      C1557   1.416       .  A
C1155      C1556   1.416       .  A
C1155      C1156   1.411       .  A
C1155      C1158   1.451       .  S
C1156      C1553   1.409       .  A
C1156      C1159   1.451       .  S
C1157      N1164   1.157       .  T
C1158      N1163   1.157       .  T
C1159      N1161   1.157       .  T
C1160      N1162   1.157       .  T
C1165      C1438   1.485       .  S
C1165      C1166   1.415       .  A
C1165      C1572   1.412       .  A
C1166      C1167   1.411       .  A
C1166      C1171   1.451       .  S
C1167      C1168   1.410       .  A
C1167      C1174   1.451       .  S
C1168      C1571   1.412       .  A
C1169      C1570   1.412   1_545  A
C1169      C1170   1.411       .  A
C1169      C1172   1.451       .  S
C1170      C1567   1.412   1_545  A
C1170      C1173   1.450       .  S
C1171      N1178   1.157       .  T
C1172      N1177   1.157       .  T
C1173      N1175   1.157       .  T
C1174      N1176   1.157       .  T
C1179      C1582   1.410       .  A
C1179      C1184   1.411       .  A
C1180      C1581   1.410   1_545  A
C1180      C1181   1.409       .  A
C1180      C1185   1.451       .  S
C1181      C1584   1.416   1_545  A
C1181      C1188   1.452       .  S
C1182      C1583   1.416       .  A
C1182      C1183   1.415       .  A
C1183      C1184   1.414       .  A
C1183      C1186   1.450       .  S
C1184      C1187   1.450       .  S
C1185      N1192   1.157       .  T
C1186      N1191   1.157       .  T
C1187      N1189   1.157       .  T
C1188      N1190   1.157       .  T
C1193      C1596   1.410       .  A
C1193      C1198   1.411       .  A
C1194      C1595   1.410   1_545  A
C1194      C1195   1.412       .  A
C1194      C1199   1.450       .  S
C1195      C1598   1.411   1_545  A
C1195      C1202   1.449       .  S
C1196      C1408   1.481       .  S
C1196      C1597   1.411       .  A
C1196      C1197   1.412       .  A
C1197      C1198   1.409       .  A
C1197      C1200   1.449       .  S
C1198      C1201   1.452       .  S
C1199      N1206   1.157       .  T
C1200      N1205   1.157       .  T
C1201      N1203   1.157       .  T
C1202      N1204   1.157       .  T
C1207      N1225   1.349       .  A
N1208      N1230   1.321       .  A
N1208     Co1245   2.087       .  S
C1209      C1247   1.457   1_655  S
C1209      H1254   1.081       .  S
H1210      C1251   1.081       .  S
C1211      N1235   1.336       .  A
C1211      H1240   1.080       .  S
Co1212     N1431   2.082       .  S
Co1212     N1220   2.078       .  S
Co1212     N1453   2.082       .  S
Co1212     N1228   2.085       .  S
N1213      N1220   1.321       .  A
Co1214     N1217   2.095   1_455  S
Co1214     N1221   2.087   1_455  S
C1215      N1253   1.356       .  A
C1215      C1299   1.500       .  S
N1216      N1223   1.318   1_655  A
N1216      N1246   1.322       .  A
N1216     Co1249   2.080       .  S
N1217      N1235   1.319       .  A
N1218      N1228   1.325       .  A
H1219      C1244   1.082       .  S
N1220      N1241   1.322       .  A
N1221      N1239   1.320       .  A
C1222      N1226   1.351   1_545  A
C1222      C1355   1.487   1_545  S
C1224      N1252   1.341       .  A
C1224      H1258   1.081       .  S
C1227      N1248   1.350   1_455  A
N1228      N1234   1.321       .  A
N1229      N1231   1.319       .  A
N1230      C1244   1.339       .  A
N1230     Co1413   2.078   1_554  S
N1231      N1259   1.323       .  A
N1231     Co1249   2.087       .  S
H1232      C1255   1.081       .  S
H1233      C1250   1.082       .  S
N1235     Co1450   2.076       .  S
N1236      N1252   1.321       .  A
N1236     Co1245   2.090       .  S
C1237      C1251   1.464       .  S
C1238      C1257   1.470       .  S
C1238      H1242   1.081       .  S
N1239      C1250   1.339       .  A
N1239     Co1450   2.077       .  S
C1243      C1255   1.463   1_545  S
C1243      C1383   1.491       .  S
Co1249     N1436   2.072   1_554  S
Co1249     N1440   2.081   1_554  S
N1252     Co1413   2.082   1_554  S
C1257      C1327   1.499       .  S
C1260      C1338   1.495       .  S
C1260      C1261   1.404       .  A
C1260      C1265   1.404       .  A
C1261      H1266   1.079       .  S
C1261      C1262   1.414       .  A
C1262      C1273   1.511       .  S
C1262      C1263   1.415       .  A
C1263      H1267   1.078       .  S
C1263      C1264   1.401       .  A
C1264      C1324   1.493       .  S
C1264      C1265   1.402       .  A
C1265      H1268   1.084       .  S
C1269      C1310   1.492       .  S
C1269      C1270   1.401       .  A
C1269      C1274   1.405       .  A
C1270      H1275   1.084       .  S
C1270      C1271   1.401       .  A
C1271      C1296   1.492       .  S
C1271      C1272   1.402       .  A
C1272      H1276   1.079       .  S
C1272      C1273   1.413       .  A
C1273      C1274   1.415       .  A
C1274      H1277   1.079       .  S
C1278      C1394   1.480       .  S
C1278      C1279   1.396       .  A
C1278      C1283   1.400       .  A
C1279      H1284   1.084       .  S
C1279      C1280   1.396   1_565  A
C1280      C1380   1.484       .  S
C1280      C1281   1.402       .  A
C1281      H1285   1.079       .  S
C1281      C1282   1.416   1_545  A
C1282      C1291   1.508       .  S
C1282      C1283   1.413       .  A
C1283      H1286   1.079       .  S
C1287      C1369   1.484   1_545  S
C1287      C1288   1.397   1_545  A
C1287      C1292   1.401       .  A
C1288      H1293   1.084       .  S
C1288      C1289   1.398       .  A
C1289      C1352   1.483       .  S
C1289      C1290   1.400       .  A
C1290      H1294   1.079       .  S
C1290      C1291   1.413       .  A
C1291      C1292   1.416   1_565  A
C1292      H1295   1.079       .  S
C1296      C1301   1.414       .  A
C1297      C1298   1.412       .  A
C1297      C1302   1.450       .  S
C1298      C1305   1.451       .  S
C1299      C1300   1.417       .  A
C1300      C1301   1.413       .  A
C1300      C1303   1.450       .  S
C1301      C1304   1.452       .  S
C1302      N1309   1.157       .  T
C1303      N1308   1.157       .  T
C1304      N1306   1.157       .  T
C1305      N1307   1.158       .  T
C1310      C1311   1.414       .  A
C1311      C1312   1.411       .  A
C1311      C1316   1.451       .  S
C1312      C1313   1.410       .  A
C1312      C1319   1.449       .  S
C1314      C1315   1.411       .  A
C1314      C1317   1.451       .  S
C1315      C1318   1.449       .  S
C1316      N1323   1.157       .  T
C1317      N1322   1.157       .  T
C1318      N1320   1.157       .  T
C1319      N1321   1.157       .  T
C1324      C1329   1.412       .  A
C1325      C1326   1.412       .  A
C1325      C1330   1.451       .  S
C1326      C1333   1.452       .  S
C1327      C1328   1.417       .  A
C1328      C1329   1.415       .  A
C1328      C1331   1.448       .  S
C1329      C1332   1.451       .  S
C1330      N1337   1.157       .  T
C1331      N1336   1.157       .  T
C1332      N1334   1.157       .  T
C1333      N1335   1.158       .  T
C1338      C1339   1.418       .  A
C1339      C1340   1.411       .  A
C1339      C1344   1.451       .  S
C1340      C1341   1.410       .  A
C1340      C1347   1.452       .  S
C1342      C1343   1.412       .  A
C1342      C1345   1.451       .  S
C1343      C1346   1.449       .  S
C1344      N1351   1.157       .  T
C1345      N1350   1.157       .  T
C1346      N1348   1.157       .  T
C1347      N1349   1.157       .  T
C1352      C1353   1.410       .  A
C1353      C1354   1.412       .  A
C1353      C1358   1.451       .  S
C1354      C1355   1.414       .  A
C1354      C1361   1.449       .  S
C1356      C1357   1.410       .  A
C1356      C1359   1.451       .  S
C1357      C1360   1.452       .  S
C1358      N1365   1.157       .  T
C1359      N1364   1.157       .  T
C1360      N1362   1.157       .  T
C1361      N1363   1.156       .  T
C1366      C1367   1.414       .  A
C1367      C1368   1.409       .  A
C1367      C1372   1.450       .  S
C1368      C1369   1.410       .  A
C1368      C1375   1.452       .  S
C1370      C1371   1.412       .  A
C1370      C1373   1.450       .  S
C1371      C1374   1.450       .  S
C1372      N1379   1.157       .  T
C1373      N1378   1.157       .  T
C1374      N1376   1.157       .  T
C1375      N1377   1.157       .  T
C1380      C1385   1.411   1_545  A
C1381      C1382   1.409       .  A
C1381      C1386   1.452       .  S
C1382      C1389   1.451       .  S
C1383      C1384   1.416   1_545  A
C1384      C1385   1.411       .  A
C1384      C1387   1.451       .  S
C1385      C1388   1.452       .  S
C1386      N1393   1.157       .  T
C1387      N1392   1.158       .  T
C1388      N1390   1.157       .  T
C1389      N1391   1.157       .  T
C1394      C1399   1.411       .  A
C1395      C1396   1.409       .  A
C1395      C1400   1.450       .  S
C1396      C1403   1.450       .  S
C1397      C1398   1.412       .  A
C1398      C1399   1.409       .  A
C1398      C1401   1.451       .  S
C1399      C1402   1.451       .  S
C1400      N1407   1.157       .  T
C1401      N1406   1.157       .  T
C1402      N1404   1.157       .  T
C1403      N1405   1.157       .  T
C1408      N1426   1.352       .  A
N1409      N1431   1.321       .  A
N1409     Co1446   2.096       .  S
C1410      C1448   1.460   1_655  S
C1410      H1455   1.081       .  S
H1411      C1452   1.081       .  S
C1412      N1436   1.334       .  A
C1412      H1441   1.081       .  S
Co1413     N1421   2.086       .  S
Co1413     N1429   2.081       .  S
N1414      N1421   1.321       .  A
Co1415     N1418   2.098       .  S
Co1415     N1422   2.081   1_455  S
C1416      N1454   1.356       .  A
C1416      C1500   1.495       .  S
N1417      N1424   1.318   1_655  A
N1417      N1447   1.323       .  A
N1417     Co1450   2.078       .  S
N1418      N1436   1.319   1_455  A
N1419      N1429   1.325       .  A
H1420      C1445   1.082       .  S
N1421      N1442   1.324       .  A
N1422      N1440   1.320       .  A
C1423      N1427   1.350   1_545  A
C1423      C1556   1.484       .  S
C1425      N1453   1.341       .  A
C1425      H1459   1.081       .  S
C1428      N1449   1.348       .  A
N1429      N1435   1.320       .  A
N1430      N1432   1.320       .  A
N1431      C1445   1.339       .  A
N1432      N1460   1.322       .  A
N1432     Co1450   2.084       .  S
H1433      C1456   1.082       .  S
H1434      C1451   1.082       .  S
N1437      N1453   1.321       .  A
N1437     Co1446   2.085       .  S
C1438      C1452   1.462       .  S
C1439      C1458   1.467       .  S
C1439      H1443   1.081       .  S
N1440      C1451   1.339       .  A
C1444      C1456   1.465       .  S
C1444      C1584   1.489       .  S
C1458      C1528   1.496       .  S
C1461      C1539   1.491       .  S
C1461      C1462   1.405       .  A
C1461      C1466   1.399       .  A
C1462      H1467   1.076       .  S
C1462      C1463   1.415       .  A
C1463      C1474   1.517       .  S
C1463      C1464   1.417       .  A
C1464      H1468   1.075       .  S
C1464      C1465   1.401       .  A
C1465      C1525   1.486       .  S
C1465      C1466   1.396       .  A
C1466      H1469   1.084       .  S
C1470      C1511   1.492       .  S
C1470      C1471   1.400       .  A
C1470      C1475   1.405       .  A
C1471      H1476   1.084       .  S
C1471      C1472   1.401       .  A
C1472      C1497   1.493       .  S
C1472      C1473   1.402       .  A
C1473      H1477   1.074       .  S
C1473      C1474   1.415       .  A
C1474      C1475   1.417       .  A
C1475      H1478   1.076       .  S
C1479      C1595   1.483       .  S
C1479      C1480   1.398       .  A
C1479      C1484   1.400       .  A
C1480      H1485   1.084       .  S
C1480      C1481   1.397       .  A
C1481      C1581   1.488       .  S
C1481      C1482   1.403       .  A
C1482      H1486   1.079       .  S
C1482      C1483   1.417       .  A
C1483      C1492   1.510       .  S
C1483      C1484   1.414       .  A
C1484      H1487   1.079   1_565  S
C1488      C1570   1.485       .  S
C1488      C1489   1.397       .  A
C1488      C1493   1.403       .  A
C1489      H1494   1.084       .  S
C1489      C1490   1.396   1_565  A
C1490      C1553   1.481       .  S
C1490      C1491   1.400       .  A
C1491      H1495   1.079       .  S
C1491      C1492   1.413   1_545  A
C1492      C1493   1.417       .  A
C1493      H1496   1.079       .  S
C1497      C1502   1.415       .  A
C1498      C1499   1.410       .  A
C1498      C1503   1.451       .  S
C1499      C1506   1.452       .  S
C1500      C1501   1.415       .  A
C1501      C1502   1.414       .  A
C1501      C1504   1.449       .  S
C1502      C1505   1.451       .  S
C1503      N1510   1.156       .  T
C1504      N1509   1.157       .  T
C1505      N1507   1.157       .  T
C1506      N1508   1.158       .  T
C1511      C1512   1.415       .  A
C1512      C1513   1.411       .  A
C1512      C1517   1.451       .  S
C1513      C1514   1.410       .  A
C1513      C1520   1.450       .  S
C1515      C1516   1.413       .  A
C1515      C1518   1.450       .  S
C1516      C1519   1.448       .  S
C1517      N1524   1.157       .  T
C1518      N1523   1.157       .  T
C1519      N1521   1.157       .  T
C1520      N1522   1.157       .  T
C1525      C1530   1.410       .  A
C1526      C1527   1.412       .  A
C1526      C1531   1.451       .  S
C1527      C1534   1.451       .  S
C1528      C1529   1.417       .  A
C1529      C1530   1.412       .  A
C1529      C1532   1.449       .  S
C1530      C1533   1.452       .  S
C1531      N1538   1.157       .  T
C1532      N1537   1.157       .  T
C1533      N1535   1.157       .  T
C1534      N1536   1.157       .  T
C1539      C1540   1.415       .  A
C1540      C1541   1.409       .  A
C1540      C1545   1.452       .  S
C1541      C1542   1.409       .  A
C1541      C1548   1.449       .  S
C1543      C1544   1.411       .  A
C1543      C1546   1.451       .  S
C1544      C1547   1.450       .  S
C1545      N1552   1.157       .  T
C1546      N1551   1.157       .  T
C1547      N1549   1.157       .  T
C1548      N1550   1.156       .  T
C1553      C1554   1.410   1_545  A
C1554      C1555   1.409       .  A
C1554      C1559   1.452       .  S
C1555      C1556   1.413   1_565  A
C1555      C1562   1.450       .  S
C1557      C1558   1.411       .  A
C1557      C1560   1.451       .  S
C1558      C1561   1.451       .  S
C1559      N1566   1.157       .  T
C1560      N1565   1.157       .  T
C1561      N1563   1.157       .  T
C1562      N1564   1.157       .  T
C1567      C1568   1.415       .  A
C1568      C1569   1.411       .  A
C1568      C1573   1.450       .  S
C1569      C1570   1.410       .  A
C1569      C1576   1.451       .  S
C1571      C1572   1.411       .  A
C1571      C1574   1.451       .  S
C1572      C1575   1.450       .  S
C1573      N1580   1.157       .  T
C1574      N1579   1.157       .  T
C1575      N1577   1.157       .  T
C1576      N1578   1.157       .  T
C1581      C1586   1.411       .  A
C1582      C1583   1.409       .  A
C1582      C1587   1.451       .  S
C1583      C1590   1.452       .  S
C1584      C1585   1.415       .  A
C1585      C1586   1.415       .  A
C1585      C1588   1.450       .  S
C1586      C1589   1.450       .  S
C1587      N1594   1.157       .  T
C1588      N1593   1.157       .  T
C1589      N1591   1.157       .  T
C1590      N1592   1.157       .  T
C1595      C1600   1.411       .  A
C1596      C1597   1.411       .  A
C1596      C1601   1.450       .  S
C1597      C1604   1.449       .  S
C1598      C1599   1.412       .  A
C1599      C1600   1.409       .  A
C1599      C1602   1.449       .  S
C1600      C1603   1.452       .  S
C1601      N1608   1.157       .  T
C1602      N1607   1.157       .  T
C1603      N1605   1.157       .  T
C1604      N1606   1.157       .  T
