geometry optimzed in LAMMPS
_audit_creation_date              2020-12-01 
_audit_creation_method            'lammps2cif' 
_symmetry_space_group_name_H-M    'P1' 
_symmetry_Int_Tables_number       1 
_symmetry_cell_setting            triclinic 
loop_ 
_symmetry_equiv_pos_as_xyz 
  x,y,z 
_cell_length_a                    55.66904384 
_cell_length_b                    49.989331521901114 
_cell_length_c                    27.161751430684266 
_cell_angle_alpha                 96.1077026717186 
_cell_angle_beta                  90.70152411316415 
_cell_angle_gamma                 123.77428779873796 
loop_ 
_atom_site_label 
_atom_site_type_symbol 
_atom_site_fract_x 
_atom_site_fract_y 
_atom_site_fract_z 
_atom_site_charge 
C1          C  0.30940742  0.15865197  0.98746549     0.81000
N2          N  0.32801122  0.19099490  0.98563387    -0.77300
C3          C  0.35636205  0.20429056  0.97802569     0.83400
N4          N  0.36608454  0.18463708  0.97203811    -0.77300
C5          C  0.34784933  0.15218362  0.97361093     0.83500
N6          N  0.31962952  0.13940882  0.98201769    -0.79000
C7          C  0.31893572  0.17941261  0.46486397     0.81000
N8          N  0.33176980  0.16292244  0.46651365    -0.77300
C9          C  0.36073298  0.17801231  0.46216500     0.83400
N10         N  0.37675384  0.20989785  0.45526268    -0.77300
C11         C  0.36423689  0.22666784  0.45285709     0.83500
N12         N  0.33531632  0.21114486  0.45766767    -0.79000
C13         C  0.21870863  0.38658830  0.27280897     0.81000
N14         N  0.20589402  0.40291697  0.26756952    -0.77300
C15         C  0.17684651  0.38815693  0.27151369     0.83400
N16         N  0.16072914  0.35662532  0.28000607    -0.77300
C17         C  0.17302018  0.33988812  0.28517443     0.83500
N18         N  0.20195645  0.35512725  0.28133980    -0.79000
C19         C  0.21490400  0.37188850  0.44497076     0.81000
N20         N  0.20251555  0.38895807  0.44595546    -0.77300
C21         C  0.17387964  0.37438368  0.45272848     0.83400
N22         N  0.15769685  0.34243642  0.45831793    -0.77300
C23         C  0.16965287  0.32506856  0.45756754     0.83500
N24         N  0.19823209  0.33995484  0.45071670    -0.79000
C25         C  0.11003528  0.07221205  0.10173804     0.77200
Tb26       Tb  0.48294488  0.03187515  0.10766320     1.80700
O27         O  0.10414198  0.06416506  0.14468746    -0.50800
O28         O  0.06234798  0.49715717  0.16733165    -0.58200
C29         C  0.05083676  0.10052874  0.17071847     0.93000
O30         O  0.46824577  0.06787462  0.11127467    -0.57800
Tb31       Tb  0.05351021  0.03564271  0.13093434     1.78100
O32         O  0.42086500  0.46782977  0.10971620    -0.58300
O33         O  0.00581530  0.45896394  0.08001160    -0.77100
O34         O  0.06427033  0.08832471  0.15269974    -0.76400
O35         O  0.03297747  0.02526060  0.05019848    -0.61700
C36         C  0.48111377  0.44645501  0.06631346     0.92600
O37         O  0.49265586  0.02374887  0.18755760    -0.73600
C38         C  0.42321102  0.99182889  0.11785332     0.76100
C39         C  0.07031419  0.48101655  0.14229356     0.77000
O40         O  0.08789251  0.06388021  0.07401079    -0.58900
O41         O  0.06563533  0.47916961  0.09606751    -0.50800
O42         O  0.01531878  0.05562958  0.05444857    -0.76900
O43         O  0.04210905  0.04371575  0.21126990    -0.60900
C44         C  0.01841300  0.03683902  0.22852959     0.90800
C45         C  0.02516884  0.04123585  0.02985996     0.92100
C46         C  0.46231669  0.06496262  0.06523783     0.76400
O47         O  0.44037305  0.01818822  0.14565102    -0.50200
O48         O  0.46868153  0.04742459  0.03982426    -0.51300
O49         O  0.46604570  0.45850019  0.06923007    -0.64200
O50         O  0.02330033  0.08450972  0.16977950    -0.65300
C51         C  0.10248223  0.06039126  0.39958838     0.77200
Tb52       Tb  0.47017192  0.01201498  0.36325733     1.80700
O53         O  0.08451185  0.04616751  0.43088779    -0.50800
O54         O  0.07419635  0.50502795  0.40806816    -0.58200
C55         C  0.04206213  0.08330130  0.41137976     0.93000
O56         O  0.44991661  0.03094537  0.42155924    -0.57800
Tb57       Tb  0.04225258  0.01887457  0.37574083     1.78100
O58         O  0.43398990  0.47781279  0.33686109    -0.58300
O59         O  0.00899793  0.46833970  0.33469710    -0.77100
O60         O  0.04764197  0.06370605  0.42499820    -0.76400
O61         O  0.03826029  0.04234516  0.30880464    -0.61700
C62         C  0.48225220  0.45644082  0.36278873     0.92600
O63         O  0.48870088  0.01404545  0.44255063    -0.73600
C64         C  0.41205874  0.97560427  0.32500460     0.76100
C65         C  0.07194420  0.48158730  0.38069859     0.77000
O66         O  0.09052422  0.05462410  0.35642309    -0.58900
O67         O  0.05973989  0.47638483  0.33805617    -0.50800
O68         O  0.99129862  0.02434650  0.29864949    -0.76900
O69         O  0.01840263  0.00056749  0.44698629    -0.60900
C70         C  0.00396287  0.00857959  0.47310084     0.90800
C71         C  0.01588075  0.03463466  0.28188308     0.92100
C72         C  0.45443635  0.05445262  0.40049935     0.76400
O73         O  0.42019916  0.98149626  0.37044292    -0.50200
O74         O  0.46815760  0.05788459  0.36251232    -0.51300
O75         O  0.47683977  0.47620043  0.38361483    -0.64200
O76         O  0.02074845  0.07416464  0.38080270    -0.65300
C77         C  0.14561953  0.23895240  0.47078494    -0.27400
C78         C  0.11541882  0.22186645  0.46073195     0.06200
C79         C  0.10309989  0.23949951  0.45397889     0.25800
C80         C  0.12086289  0.27313444  0.45480097    -0.11900
C81         C  0.15122161  0.28988146  0.46138124    -0.25900
C82         C  0.16343035  0.27241895  0.47016544     0.36600
C83         C  0.09744177  0.18577317  0.45302265     0.06200
F84         F  0.07408246  0.22423686  0.44376868    -0.19700
H85         H  0.11074642  0.28587980  0.44822887     0.16000
F86         F  0.18818827  0.28542415  0.78967737    -0.23400
H87         H  0.15895118  0.23085238  0.82468579     0.17800
C88         C  0.10721707  0.16868792  0.42501552     0.25800
C89         C  0.08954314  0.13497490  0.41446403    -0.11900
C90         C  0.06152097  0.11781175  0.42977383    -0.25900
C91         C  0.05165989  0.13432840  0.45843169     0.36700
C92         C  0.06974337  0.16806291  0.47069771    -0.27600
F93         F  0.13303623  0.18455798  0.40480257    -0.19700
H94         H  0.09713021  0.12236333  0.39171951     0.16000
F95         F  0.02453663  0.11788813  0.47399808    -0.23400
H96         H  0.06183441  0.18034320  0.49321999     0.17800
C97         C  0.34387479  0.42211779  0.36738476    -0.27400
C98         C  0.33600986  0.43434969  0.40842894     0.06200
C99         C  0.35777938  0.46207658  0.43988526     0.25800
C100        C  0.38673004  0.47791269  0.42932059    -0.11900
C101        C  0.39456916  0.46643995  0.38729773    -0.25900
C102        C  0.37290358  0.43797015  0.35677138     0.36600
C103        C  0.30509668  0.41839844  0.41787421     0.06200
F104        F  0.31750869  0.45573892  0.79538146    -0.19700
H105        H  0.37025062  0.47966395  0.82697317     0.16000
F106        F  0.38738066  0.94132513  0.22654184    -0.23400
H107        H  0.32739590  0.40065560  0.34287176     0.17800
C108        C  0.29256659  0.43627499  0.42306561     0.25800
C109        C  0.26340840  0.42106765  0.43219911    -0.11900
C110        C  0.24602236  0.38766140  0.43604846    -0.25900
C111        C  0.25867516  0.36973977  0.43027573     0.36700
C112        C  0.28784894  0.38504305  0.42111078    -0.27600
F113        F  0.30833293  0.46830955  0.41789496    -0.19700
H114        H  0.25444292  0.43556116  0.43593084     0.16000
F115        F  0.24300802  0.33737150  0.43287978    -0.23400
H116        H  0.29709600  0.37083462  0.41690104     0.17800
C117        C  0.09865989  0.42630450  0.37578579    -0.27400
C118        C  0.11305584  0.43512160  0.42331826     0.06200
C119        C  0.11197055  0.45721303  0.45795969     0.25800
C120        C  0.09739876  0.47117645  0.44453008    -0.11900
C121        C  0.08391871  0.46347004  0.39622777    -0.25900
C122        C  0.08401482  0.44017113  0.36228576     0.36600
C123        C  0.12936905  0.42128320  0.43605600     0.06200
F124        F  0.12542447  0.46565720  0.50437554    -0.19700
H125        H  0.09715381  0.48847346  0.47166161     0.16000
F126        F  0.07059846  0.43131854  0.31573814    -0.23400
H127        H  0.09917198  0.40903265  0.34891871     0.17800
C128        C  0.11499690  0.39054493  0.45155158     0.25800
C129        C  0.12996985  0.37613088  0.45885561    -0.11900
C130        C  0.15954596  0.39201267  0.45045390    -0.25900
C131        C  0.17418673  0.42362393  0.43701818     0.36700
C132        C  0.15907627  0.43798691  0.42980249    -0.27600
F133        F  0.08628513  0.37414142  0.45826575    -0.19700
H134        H  0.11806473  0.35204575  0.46998766     0.16000
F135        F  0.17736892  0.41298015  0.70205695    -0.23400
H136        H  0.17038631  0.46187072  0.41792087     0.17800
C137        C  0.07692871  0.17791662  0.25874777    -0.27400
C138        C  0.10234832  0.20068887  0.23822718     0.06200
C139        C  0.11065145  0.19026795  0.19556859     0.25800
C140        C  0.09391848  0.15766275  0.17422043    -0.11900
C141        C  0.06831405  0.13488716  0.19432785    -0.25900
C142        C  0.05997607  0.14530551  0.23703748     0.36600
C143        C  0.11950717  0.23554466  0.25960856     0.06200
F144        F  0.13438388  0.21187621  0.17346582    -0.19700
H145        H  0.10067157  0.15029414  0.14110062     0.16000
F146        F  0.03586903  0.12385865  0.25848330    -0.23400
H147        H  0.07022887  0.18546104  0.29175576     0.17800
C148        C  0.10683005  0.25327760  0.26212615     0.25800
C149        C  0.12407454  0.28709148  0.27457000    -0.11900
C150        C  0.15433154  0.30395129  0.28474629    -0.25900
C151        C  0.16646944  0.28566339  0.28718324     0.36700
C152        C  0.14921679  0.25186431  0.27404497    -0.27600
F153        F  0.07812464  0.23822497  0.24879406    -0.19700
H154        H  0.11384787  0.30017434  0.27311882     0.16000
F155        F  0.19518527  0.30039346  0.30007915    -0.23400
H156        H  0.15923926  0.23846701  0.27361001     0.17800
C157        C  0.36059070  0.46176821  0.24179985    -0.27400
C158        C  0.33503942  0.43667496  0.21360604     0.06200
C159        C  0.33716608  0.42347151  0.16677782     0.25800
C160        C  0.36434855  0.43553388  0.14840067    -0.11900
C161        C  0.39006090  0.46074177  0.17649259    -0.25900
C162        C  0.38781173  0.47349621  0.22377275     0.36600
C163        C  0.30621840  0.42469759  0.23263705     0.06200
F164        F  0.31285364  0.39958452  0.13810904    -0.19700
H165        H  0.36523659  0.42535859  0.11177297     0.16000
F166        F  0.39357422  0.01565078  0.17292493    -0.23400
H167        H  0.35944353  0.47222372  0.27799496     0.17800
C168        C  0.28770838  0.39226316  0.24104978     0.25800
C169        C  0.25996948  0.38065647  0.25622663    -0.11900
C170        C  0.24965991  0.40089111  0.26244922    -0.25900
C171        C  0.26865582  0.43372836  0.25531031     0.36700
C172        C  0.29668812  0.44545652  0.24099491    -0.27600
F173        F  0.29637423  0.37165510  0.23414053    -0.19700
H174        H  0.24625744  0.35539243  0.26152667     0.16000
F175        F  0.26012349  0.45447173  0.26118069    -0.23400
H176        H  0.31068167  0.47056671  0.23490133     0.17800
C177        C  0.10377493  0.43298840  0.15626928    -0.27400
C178        C  0.11633676  0.44416373  0.20547702     0.06200
C179        C  0.11320996  0.46697949  0.23409874     0.25800
C180        C  0.09718041  0.47777112  0.21404713    -0.11900
C181        C  0.08500595  0.46712903  0.16445730    -0.25900
C182        C  0.08862062  0.44462709  0.13562860     0.36600
C183        C  0.13194667  0.43116153  0.22679308     0.06200
F184        F  0.12547428  0.47860765  0.28152463    -0.19700
H185        H  0.09479714  0.49500915  0.23714760     0.16000
F186        F  0.07740546  0.43370374  0.08755326    -0.23400
H187        H  0.10599956  0.41540286  0.13360076     0.17800
C188        C  0.11650906  0.39901743  0.23714291     0.25800
C189        C  0.13123612  0.38586727  0.25374588    -0.11900
C190        C  0.16182183  0.40428342  0.25981961    -0.25900
C191        C  0.17721163  0.43704050  0.25118252     0.36700
C192        C  0.16232583  0.45025268  0.23498166    -0.27600
F193        F  0.08709410  0.38017128  0.23053724    -0.19700
H194        H  0.11850009  0.36074347  0.26033910     0.16000
F195        F  0.20660835  0.45623829  0.25743223    -0.23400
H196        H  0.17457965  0.47521182  0.22749811     0.17800
C197        C  0.37168195  0.10864565  0.44807020    -0.27400
C198        C  0.40208780  0.12570841  0.45102783     0.06200
C199        C  0.41859075  0.15981094  0.46125216     0.25800
C200        C  0.40497550  0.17641464  0.46619825    -0.11900
C201        C  0.37455182  0.15953281  0.46135247    -0.25900
C202        C  0.35798274  0.12522495  0.45330113     0.36600
C203        C  0.41648849  0.10817634  0.44046135     0.06200
F204        F  0.44800353  0.17717804  0.46628091    -0.19700
H205        H  0.41840839  0.20269679  0.47327734     0.16000
F206        F  0.32855964  0.10755261  0.44831709    -0.23400
H207        H  0.35842387  0.08239743  0.43986456     0.17800
C208        C  0.40873435  0.08055310  0.46278908     0.25800
C209        C  0.42212595  0.06409392  0.45132460    -0.11900
C210        C  0.44301415  0.07431567  0.41652174    -0.25900
C211        C  0.45084518  0.10196216  0.39428459     0.36700
C212        C  0.43777168  0.11867268  0.40632635    -0.27600
F213        F  0.38813313  0.06931899  0.49550197    -0.19700
H214        H  0.41547876  0.04268007  0.46869074     0.16000
F215        F  0.47076026  0.11257644  0.36021258    -0.23400
H216        H  0.44378467  0.13948467  0.38780197     0.17800
C217        C  0.45395717  0.36764004  0.37023838    -0.27400
C218        C  0.42942351  0.35746856  0.39704753     0.06200
C219        C  0.42186487  0.37973587  0.41020885     0.25800
C220        C  0.43891043  0.41141922  0.39826997    -0.11900
C221        C  0.46379081  0.42186690  0.37228658    -0.25900
C222        C  0.47083794  0.39930249  0.35763615     0.36600
C223        C  0.41253050  0.32411959  0.41220295     0.06200
F224        F  0.39849825  0.37139019  0.43604648    -0.19700
H225        H  0.43262925  0.42793268  0.40994663     0.16000
F226        F  0.49426692  0.40783445  0.33188332    -0.23400
H227        H  0.46008755  0.35095406  0.35890623     0.17800
C228        C  0.38197190  0.30439251  0.40634299     0.25800
C229        C  0.36664432  0.27337144  0.42109004    -0.11900
C230        C  0.38121564  0.26065903  0.44073122    -0.25900
C231        C  0.41179086  0.28024058  0.44618341     0.36700
C232        C  0.42712534  0.31160953  0.43248296    -0.27600
F233        F  0.36679019  0.31435819  0.38426130    -0.19700
H234        H  0.34318439  0.25883467  0.41549189     0.16000
F235        F  0.42699888  0.26930349  0.46504115    -0.23400
H236        H  0.45059341  0.32624882  0.43786038     0.17800
C237        C  0.24369814  0.16327596  0.47131191    -0.27400
C238        C  0.22591393  0.13016040  0.45235376     0.06200
C239        C  0.23870474  0.11274539  0.44282471     0.25800
C240        C  0.26882804  0.12855537  0.44969107    -0.11900
C241        C  0.28691164  0.16218676  0.46537563    -0.25900
C242        C  0.27392719  0.17926595  0.47750560     0.36600
C243        C  0.19444552  0.11427670  0.43887626     0.06200
F244        F  0.22204455  0.08050610  0.42562617    -0.19700
H245        H  0.27805664  0.11466223  0.44039084     0.16000
F246        F  0.29041697  0.21152844  0.49453159    -0.23400
H247        H  0.23426335  0.17707733  0.47930928     0.17800
C248        C  0.17571971  0.11308656  0.47417441     0.25800
C249        C  0.14579632  0.09577455  0.46116086    -0.11900
C250        C  0.13424398  0.08061220  0.41221518    -0.25900
C251        C  0.15321419  0.08342549  0.37630391     0.36700
C252        C  0.18292628  0.09972569  0.38977326    -0.27600
F253        F  0.18623088  0.12801237  0.52136106    -0.19700
H254        H  0.13161594  0.09418987  0.48938858     0.16000
F255        F  0.14292427  0.06921942  0.32864512    -0.23400
H256        H  0.19705844  0.10089191  0.36174720     0.17800
C257        C  0.39862403  0.12481317  0.95436787    -0.27400
C258        C  0.39002736  0.10323962  0.98962424     0.06200
C259        C  0.37196082  0.10147026  0.58826118     0.25800
C260        C  0.35906752  0.11868390  0.58801740    -0.11900
C261        C  0.35976455  0.13207373  0.97312825    -0.25900
C262        C  0.38370970  0.13929742  0.94626270     0.36600
C263        C  0.40970277  0.09447080  0.00721696     0.06200
F264        F  0.35556399  0.06928408  0.57078496    -0.19700
H265        H  0.33644264  0.10573290  0.57429561     0.16000
F266        F  0.39337828  0.16131387  0.91371665    -0.23400
H267        H  0.41800177  0.13205339  0.93554372     0.17800
C268        C  0.41737755  0.07682839  0.97547102     0.25800
C269        C  0.43597567  0.06884791  0.99378747    -0.11900
C270        C  0.44689462  0.07808867  0.04406913    -0.25900
C271        C  0.43997250  0.09683887  0.07514142     0.36700
C272        C  0.42154608  0.10483305  0.05677547    -0.27600
F273        F  0.45853648  0.14112508  0.57282345    -0.19700
H274        H  0.47714143  0.10376061  0.57706313     0.16000
F275        F  0.45047629  0.10693557  0.12361776    -0.23400
H276        H  0.41630966  0.11905970  0.08148048     0.17800
C277        C  0.42561545  0.28959897  0.98642313    -0.27400
C278        C  0.41474267  0.30895820  0.99636853     0.06200
C279        C  0.38456153  0.29360577  0.99674427     0.25800
C280        C  0.36591378  0.25979885  0.98895266    -0.11900
C281        C  0.37670858  0.24022267  0.98092444    -0.25900
C282        C  0.40691537  0.25560859  0.97888044     0.36600
C283        C  0.43463476  0.34487037  0.00918152     0.06200
F284        F  0.37303881  0.31118341  0.00725028    -0.19700
H285        H  0.34290424  0.24899096  0.99072927     0.16000
F286        F  0.41862683  0.23804612  0.97090507    -0.23400
H287        H  0.44871443  0.30081393  0.98514248     0.17800
C288        C  0.45830540  0.35894990  0.04537328     0.25800
C289        C  0.47422097  0.39232231  0.06226645    -0.11900
C290        C  0.46650612  0.41208920  0.04416335    -0.25900
C291        C  0.44397868  0.39838303  0.00597876     0.36700
C292        C  0.42848177  0.36521934  0.98839909    -0.27600
F293        F  0.46492669  0.34023843  0.06676977    -0.19700
H294        H  0.49167977  0.40242499  0.09138638     0.16000
F295        F  0.43678330  0.41700211  0.98584352    -0.23400
H296        H  0.40197824  0.35590218  0.52041285     0.17800
C297        C  0.18831293  0.09966304  0.09382636    -0.27400
C298        C  0.19428904  0.11161395  0.04796829     0.06200
C299        C  0.17290220  0.11223667  0.02103284     0.25800
C300        C  0.14567815  0.10005573  0.03911993    -0.11900
C301        C  0.13958204  0.08774257  0.08482922    -0.25900
C302        C  0.16139715  0.08811855  0.11241910     0.36600
C303        C  0.22279414  0.12292605  0.02866247     0.06200
F304        F  0.17804924  0.12372797  0.97662176    -0.19700
H305        H  0.12923395  0.09989551  0.01707499     0.16000
F306        F  0.15647981  0.07630964  0.15660880    -0.23400
H307        H  0.20460463  0.09923011  0.11530087     0.17800
C308        C  0.24118100  0.15482273  0.01784625     0.25800
C309        C  0.27265685  0.16792794  0.60325748    -0.11900
C310        C  0.27892852  0.14536213  0.99905376    -0.25900
C311        C  0.26000704  0.11301503  0.00854013     0.39100
C312        C  0.23234707  0.10211356  0.02341733    -0.27600
F313        F  0.23042521  0.16843599  0.59943062    -0.19700
H314        H  0.28506981  0.19343159  0.59884029     0.16000
F315        F  0.26829456  0.09201762  0.00479865    -0.23400
H316        H  0.21838724  0.07737220  0.03142582     0.17800
C317        C  0.31816731  0.16914927  0.60309744     0.81000
N318        N  0.33391597  0.20096864  0.59645412    -0.77300
C319        C  0.36295553  0.21739647  0.59257930     0.83400
N320        N  0.37629863  0.20159099  0.59575333    -0.77300
C321        C  0.36086803  0.16976574  0.60223575     0.83500
N322        N  0.33182851  0.15371467  0.60561500    -0.79000
C323        C  0.31281562  0.15238670  0.73660777     0.81000
N324        N  0.32668692  0.13684775  0.73489580    -0.77300
C325        C  0.35606374  0.15380704  0.73297111     0.83400
N326        N  0.37144932  0.18659198  0.73376102    -0.77300
C327        C  0.35793966  0.20239292  0.73541036     0.83500
N328        N  0.32873574  0.18506288  0.73685725    -0.79000
C329        C  0.20279078  0.35793445  0.58119184     0.81000
N330        N  0.18993652  0.37452388  0.58336199    -0.77300
C331        C  0.16093708  0.35899907  0.58768247     0.83400
N332        N  0.14486999  0.32656356  0.58996365    -0.77300
C333        C  0.15724946  0.30957778  0.58810665     0.83500
N334        N  0.18622019  0.32548139  0.58375887    -0.79000
C335        C  0.19845622  0.34906831  0.71112449     0.81000
N336        N  0.18422764  0.36427549  0.71408022    -0.77300
C337        C  0.15583104  0.34782787  0.72447231     0.83400
N338        N  0.14216551  0.31635114  0.73254272    -0.77300
C339        C  0.15621945  0.30127774  0.73051935     0.83500
N340        N  0.18421027  0.31779740  0.71998051    -0.79000
C341        C  0.10069115  0.04660938  0.60838001     0.77200
Tb342      Tb  0.46961566  0.00181650  0.61988708     1.80700
O343        O  0.08838883  0.05424776  0.63987761    -0.50800
O344        O  0.07469580  0.50764037  0.63589841    -0.58200
C345        C  0.03840040  0.07035932  0.62487814     0.93000
O346        O  0.47619833  0.05309911  0.62550276    -0.57800
Tb347      Tb  0.04159240  0.00662022  0.62313489     1.78100
O348        O  0.43523738  0.47745137  0.56223912    -0.58300
O349        O  0.00553615  0.47820634  0.61324610    -0.77100
O350        O  0.04609328  0.05318983  0.60202445    -0.76400
O351        O  0.02069714  0.99859462  0.54351249    -0.61700
C352        C  0.48130504  0.45981472  0.58647668     0.92600
O353        O  0.48071292  0.98377906  0.68724810    -0.73600
C354        C  0.41608772  0.97039055  0.66288808     0.76100
C355        C  0.06610497  0.48287910  0.60450692     0.77000
O356        O  0.08330796  0.01959194  0.58219067    -0.58900
O357        O  0.04770983  0.47824841  0.57119756    -0.50800
O358        O  0.98777161  0.01137924  0.55183945    -0.76900
O359        O  0.03373307  0.02382917  0.70028026    -0.60900
C360        C  0.01079019  0.00871120  0.72206690     0.90800
C361        C  0.00376236  0.00552714  0.52590307     0.92100
C362        C  0.45200661  0.04298908  0.60341909     0.76400
O363        O  0.44033290  0.98887120  0.68792258    -0.50200
O364        O  0.43785702  0.01335640  0.58602120    -0.51300
O365        O  0.47506673  0.47522999  0.56065751    -0.64200
O366        O  0.01827120  0.05836024  0.65402542    -0.65300
C367        C  0.10971569  0.05686938  0.83805917     0.77200
Tb368      Tb  0.48121771  0.01830450  0.86128791     1.80700
O369        O  0.10575104  0.05932353  0.88357715    -0.50800
O370        O  0.04917028  0.46723933  0.85875672    -0.58200
C371        C  0.05405602  0.09079054  0.87170418     0.93000
O372        O  0.46130378  0.04935884  0.86352561    -0.57800
Tb373      Tb  0.05447483  0.02681504  0.87429302     1.78100
O374        O  0.43136105  0.47310685  0.78011000    -0.58300
O375        O  0.99953143  0.46819138  0.80246874    -0.77100
O376        O  0.06479991  0.07896123  0.89610274    -0.76400
O377        O  0.03842307  0.03137533  0.79829460    -0.61700
C378        C  0.47025977  0.44510977  0.82867326     0.92600
O379        O  0.50773613  0.04162776  0.93965503    -0.73600
C380        C  0.42347936  0.98093713  0.88239471     0.76100
C381        C  0.05911144  0.46595066  0.81754853     0.77000
O382        O  0.08626849  0.04113363  0.81047674    -0.58900
O383        O  0.05999718  0.48534875  0.79039962    -0.50800
O384        O  0.99061957  0.00077109  0.79941616    -0.76900
O385        O  0.04065662  0.03114032  0.95449532    -0.60900
C386        C  0.02602841  0.04089388  0.97578854     0.90800
C387        C  0.01322716  0.01347625  0.77611635     0.92100
C388        C  0.45949809  0.05011887  0.81739367     0.76400
O389        O  0.44244588  0.00767138  0.90782607    -0.50200
O390        O  0.47015160  0.03674810  0.79284304    -0.51300
O391        O  0.46194943  0.45722384  0.86202035    -0.64200
O392        O  0.02783645  0.07412566  0.85369912    -0.65300
C393        C  0.14593059  0.23446164  0.79975306    -0.27400
C394        C  0.11591405  0.21140523  0.79113425     0.06200
C395        C  0.09951364  0.21720773  0.75942737     0.25800
C396        C  0.11288025  0.24604825  0.73831385    -0.11900
C397        C  0.14279162  0.26934243  0.74788734    -0.25900
C398        C  0.15934045  0.26306469  0.77820856     0.36600
C399        C  0.10177121  0.18197001  0.81651310     0.06200
F400        F  0.07055907  0.19507200  0.74903177    -0.19700
H401        H  0.09979682  0.25037219  0.71483426     0.16000
F402        F  0.19254758  0.28745004  0.47793805    -0.23400
H403        H  0.15563486  0.22621788  0.47817357     0.17800
C404        C  0.11320666  0.16294452  0.81716736     0.25800
C405        C  0.09875962  0.13440819  0.83918925    -0.11900
C406        C  0.07253031  0.12418903  0.86003454    -0.25900
C407        C  0.06171036  0.14378318  0.86116629     0.36700
C408        C  0.07641442  0.17258738  0.84011048    -0.27600
F409        F  0.13732756  0.17082550  0.79391971    -0.19700
H410        H  0.10702874  0.11921459  0.83700468     0.16000
F411        F  0.03647798  0.13457579  0.88150468    -0.23400
H412        H  0.06764889  0.18727818  0.84140127     0.17800
C413        C  0.34069295  0.41169542  0.71471431    -0.27400
C414        C  0.32287581  0.42153535  0.73361352     0.06200
C415        C  0.33416716  0.44647041  0.77412557     0.25800
C416        C  0.36226564  0.46075603  0.79543960    -0.11900
C417        C  0.37986185  0.45071908  0.77707705    -0.25900
C418        C  0.36907311  0.42629602  0.73605854     0.36600
C419        C  0.29156245  0.40302214  0.71611048     0.06200
F420        F  0.35106783  0.47374942  0.48103088    -0.19700
H421        H  0.40302342  0.49947637  0.45386783     0.16000
F422        F  0.38118558  0.91694220  0.83265444    -0.23400
H423        H  0.33243125  0.39232809  0.68386292     0.17800
C424        C  0.27730201  0.41861075  0.70911171     0.25800
C425        C  0.24691471  0.40081171  0.70461577    -0.11900
C426        C  0.23023379  0.36711054  0.70595756    -0.25900
C427        C  0.24476473  0.35124134  0.70713022     0.36700
C428        C  0.27496465  0.36909818  0.71254558    -0.27600
F429        F  0.29269441  0.45118071  0.70836543    -0.19700
H430        H  0.23651677  0.41363877  0.70200907     0.16000
F431        F  0.23004275  0.31853192  0.70568231    -0.23400
H432        H  0.28530865  0.35637234  0.71705500     0.17800
C433        C  0.09026183  0.42605397  0.74042190    -0.27400
C434        C  0.09722290  0.41243248  0.77578746     0.06200
C435        C  0.08980468  0.41465500  0.82482314     0.25800
C436        C  0.07636352  0.43096708  0.83805975    -0.11900
C437        C  0.07021218  0.44546203  0.80276382    -0.25900
C438        C  0.07694563  0.44235943  0.75353888     0.36600
C439        C  0.11197043  0.39582868  0.76087606     0.06200
F440        F  0.09645225  0.40205131  0.86031402    -0.19700
H441        H  0.07159181  0.43311837  0.87624248     0.16000
F442        F  0.07067206  0.45515200  0.71792998    -0.23400
H443        H  0.09495400  0.42372106  0.70238983     0.17800
C444        C  0.10007226  0.36379230  0.76965928     0.25800
C445        C  0.11406585  0.34838261  0.75613911    -0.11900
C446        C  0.14053204  0.36447904  0.73392596    -0.25900
C447        C  0.15215596  0.39641892  0.72393810     0.36700
C448        C  0.13779296  0.41171579  0.73689993    -0.27600
F449        F  0.07461426  0.34712313  0.79081409    -0.19700
H450        H  0.10419781  0.32374370  0.76421723     0.16000
F451        F  0.20275265  0.44030798  0.42915680    -0.23400
H452        H  0.14718222  0.43635005  0.72910161     0.17800
C453        C  0.06232387  0.15868547  0.63259540    -0.27400
C454        C  0.08576308  0.17136084  0.60269392     0.06200
C455        C  0.09246123  0.15020688  0.57869925     0.25800
C456        C  0.07680771  0.11762470  0.58599504    -0.11900
C457        C  0.05391619  0.10505344  0.61713561    -0.25900
C458        C  0.04644057  0.12590106  0.63964304     0.36600
C459        C  0.10384738  0.20669989  0.59819687     0.06200
F460        F  0.11400796  0.16086077  0.54765919    -0.19700
H461        H  0.08286605  0.10227245  0.56724078     0.16000
F462        F  0.02408771  0.11493266  0.66890576    -0.23400
H463        H  0.05669797  0.17433645  0.65161617     0.17800
C464        C  0.09122775  0.22394121  0.59096553     0.25800
C465        C  0.10871823  0.25723022  0.58775918    -0.11900
C466        C  0.13915976  0.27412429  0.59117117    -0.25900
C467        C  0.15173948  0.25674364  0.59782096     0.36700
C468        C  0.13425214  0.22360343  0.60183392    -0.27600
F469        F  0.06197400  0.20857105  0.58580384    -0.19700
H470        H  0.09827426  0.26969194  0.58203341     0.16000
F471        F  0.18093242  0.27158871  0.60084601    -0.23400
H472        H  0.14464604  0.21120910  0.60845919     0.17800
C473        C  0.34384878  0.45099400  0.62101378    -0.27400
C474        C  0.32768473  0.42491279  0.58292819     0.06200
C475        C  0.34229428  0.41606949  0.55027834     0.25800
C476        C  0.37264171  0.43359637  0.55525607    -0.11900
C477        C  0.38882856  0.45976725  0.59347139    -0.25900
C478        C  0.37404143  0.46792587  0.62690881     0.36600
C479        C  0.29564378  0.40718862  0.57817698     0.06200
F480        F  0.32731143  0.39122276  0.51264221    -0.19700
H481        H  0.38346913  0.42703276  0.52874471     0.16000
F482        F  0.40908359  0.98798090  0.76380256    -0.23400
H483        H  0.33299745  0.45805266  0.64663950     0.17800
C484        C  0.27800852  0.37383409  0.58160583     0.25800
C485        C  0.24789981  0.35793843  0.58124526    -0.11900
C486        C  0.23469086  0.37498063  0.57777824    -0.25900
C487        C  0.25250464  0.40833531  0.57289692     0.36700
C488        C  0.28262057  0.42416103  0.57333035    -0.27600
F489        F  0.29001501  0.35695280  0.58785970    -0.19700
H490        H  0.23506496  0.33241334  0.58519984     0.16000
F491        F  0.24109176  0.42595486  0.56824987    -0.23400
H492        H  0.29588793  0.44985159  0.57038824     0.17800
C493        C  0.07657296  0.41421493  0.57551138    -0.27400
C494        C  0.10429698  0.42796598  0.59954654     0.06200
C495        C  0.11855185  0.45927905  0.62673098     0.25800
C496        C  0.10551843  0.47643984  0.62920586    -0.11900
C497        C  0.07806486  0.46291271  0.60468717    -0.25900
C498        C  0.06351359  0.43147315  0.57802127     0.36600
C499        C  0.11849912  0.40998650  0.59583461     0.06200
F500        F  0.14478164  0.47300398  0.65220355    -0.19700
H501        H  0.11715321  0.50062451  0.64988470     0.16000
F502        F  0.03673690  0.41743879  0.55440955    -0.23400
H503        H  0.06524587  0.39034102  0.55387130     0.17800
C504        C  0.10335310  0.37712768  0.60295987     0.25800
C505        C  0.11726741  0.36085095  0.59995841    -0.11900
C506        C  0.14666837  0.37692872  0.59032491    -0.25900
C507        C  0.16180900  0.40990935  0.58351747     0.36700
C508        C  0.14772330  0.42596901  0.58566421    -0.27600
F509        F  0.07533830  0.36092459  0.61426846    -0.19700
H510        H  0.10495741  0.33560967  0.60595360     0.16000
F511        F  0.19019564  0.42684564  0.57457449    -0.23400
H512        H  0.15976765  0.45109367  0.57907316     0.17800
C513        C  0.37168161  0.08834207  0.72831185    -0.27400
C514        C  0.40111769  0.10657616  0.74598712     0.06200
C515        C  0.41612757  0.14055174  0.75565374     0.25800
C516        C  0.40155938  0.15573143  0.74983475    -0.11900
C517        C  0.37169686  0.13740605  0.73427398    -0.25900
C518        C  0.35711261  0.10349428  0.72216884     0.36600
C519        C  0.41505514  0.08994380  0.75992606     0.06200
F520        F  0.44442802  0.15890674  0.77375069    -0.19700
H521        H  0.41353691  0.18185209  0.75933086     0.16000
F522        F  0.32870059  0.08484121  0.70487968    -0.23400
H523        H  0.35976282  0.06212578  0.72035210     0.17800
C524        C  0.40366684  0.06908740  0.79646174     0.25800
C525        C  0.41827258  0.05614192  0.81412673    -0.11900
C526        C  0.44416864  0.06303924  0.79511282    -0.25900
C527        C  0.45462910  0.08206967  0.75612574     0.36700
C528        C  0.44049281  0.09603516  0.73944455    -0.27600
F529        F  0.37899481  0.06231462  0.81665464    -0.19700
H530        H  0.40928863  0.04053306  0.84281461     0.16000
F531        F  0.47899514  0.08817192  0.73563118    -0.23400
H532        H  0.44943273  0.11171589  0.71083795     0.17800
C533        C  0.44501506  0.36296182  0.75718871    -0.27400
C534        C  0.41979638  0.34194681  0.77939736     0.06200
C535        C  0.41078453  0.35484514  0.81766230     0.25800
C536        C  0.42716853  0.38839243  0.83368634    -0.11900
C537        C  0.45261465  0.40958664  0.81140534    -0.25900
C538        C  0.46104176  0.39639743  0.77224109     0.36600
C539        C  0.40426037  0.30650882  0.76430874     0.06200
F540        F  0.38682705  0.33490380  0.84080267    -0.19700
H541        H  0.42009050  0.39768773  0.86375144     0.16000
F542        F  0.48482505  0.41563230  0.74827208    -0.23400
H543        H  0.45237229  0.35330258  0.72834129     0.17800
C544        C  0.37510409  0.28767750  0.74505862     0.25800
C545        C  0.36054627  0.25395667  0.73356008    -0.11900
C546        C  0.37479283  0.23843033  0.74100067    -0.25900
C547        C  0.40450831  0.25773046  0.75774112     0.36700
C548        C  0.41896000  0.29138227  0.76919999    -0.27600
F549        F  0.36077709  0.30189591  0.73736829    -0.19700
H550        H  0.33786321  0.23989068  0.71964375     0.16000
F551        F  0.41940478  0.24417337  0.76539695    -0.23400
H552        H  0.44161125  0.30567967  0.78343923     0.17800
C553        C  0.23766206  0.13528589  0.75121231    -0.27400
C554        C  0.22302530  0.10487535  0.76785242     0.06200
C555        C  0.23701360  0.08868673  0.76994528     0.25800
C556        C  0.26575758  0.10348797  0.75746385    -0.11900
C557        C  0.28114677  0.13486259  0.74327480    -0.25900
C558        C  0.26637253  0.15026632  0.73920353     0.36600
C559        C  0.19386077  0.09136552  0.78564077     0.06200
F560        F  0.22305319  0.05887814  0.78501479    -0.19700
H561        H  0.27627692  0.09083675  0.76070641     0.16000
F562        F  0.27969789  0.18016007  0.72459490    -0.23400
H563        H  0.22705794  0.14793692  0.74897545     0.17800
C564        C  0.19062496  0.09455110  0.83670937     0.25800
C565        C  0.16329612  0.08366905  0.85333971    -0.11900
C566        C  0.13870333  0.06957780  0.81941265    -0.25900
C567        C  0.14204534  0.06629563  0.76817046     0.36700
C568        C  0.16940973  0.07712871  0.75160860    -0.27600
F569        F  0.21399916  0.10861829  0.87044986    -0.19700
H570        H  0.16133227  0.08605336  0.89282628     0.16000
F571        F  0.11895279  0.05263540  0.73399561    -0.23400
H572        H  0.17157166  0.07442952  0.71219188     0.17800
C573        C  0.41742085  0.15095153  0.62205417    -0.27400
C574        C  0.40145528  0.11744345  0.60510610     0.06200
C575        C  0.36463615  0.09386024  0.01316231     0.25800
C576        C  0.34952245  0.10801635  0.00464893    -0.11900
C577        C  0.37515319  0.15221584  0.60392133    -0.25900
C578        C  0.40454019  0.16828660  0.62114223     0.36600
C579        C  0.41534457  0.09916047  0.60543424     0.06200
F580        F  0.35539995  0.07230187  0.04640675    -0.19700
H581        H  0.33099187  0.10180253  0.02543694     0.16000
F582        F  0.42059807  0.20048838  0.63856034    -0.23400
H583        H  0.43983621  0.16371862  0.63682512     0.17800
C584        C  0.44337003  0.11182614  0.58957435     0.25800
C585        C  0.45560827  0.09372281  0.58920535    -0.11900
C586        C  0.43973474  0.06244340  0.60295173    -0.25900
C587        C  0.41193592  0.04982870  0.61881141     0.36700
C588        C  0.40014093  0.06821104  0.62079982    -0.27600
F589        F  0.40595965  0.06626260  0.92753749    -0.19700
H590        H  0.44110528  0.05457054  0.96908320     0.16000
F591        F  0.39655367  0.02007731  0.63417454    -0.23400
H592        H  0.37903581  0.05815606  0.63472911     0.17800
C593        C  0.42534804  0.30281670  0.57580409    -0.27400
C594        C  0.41148553  0.31922670  0.57557506     0.06200
C595        C  0.38120829  0.30136081  0.57748702     0.25800
C596        C  0.36557818  0.26822751  0.58206580    -0.11900
C597        C  0.37972070  0.25216508  0.58494263    -0.25900
C598        C  0.40986156  0.26985781  0.58084694     0.36600
C599        C  0.42915909  0.35516667  0.57696411     0.06200
F600        F  0.36683156  0.31611974  0.57730184    -0.19700
H601        H  0.34238703  0.25534725  0.58444246     0.16000
F602        F  0.42468860  0.25567552  0.58231300    -0.23400
H603        H  0.44849384  0.31573389  0.57276797     0.17800
C604        C  0.45428749  0.37462073  0.60992059     0.25800
C605        C  0.47085031  0.40826425  0.61215772    -0.11900
C606        C  0.46300760  0.42374033  0.58168032    -0.25900
C607        C  0.43788905  0.40438950  0.54842322     0.36700
C608        C  0.42114152  0.37040445  0.54626719    -0.27600
F609        F  0.46267056  0.36120799  0.64098394    -0.19700
H610        H  0.48992674  0.42222898  0.63839822     0.16000
F611        F  0.42944649  0.41817351  0.51824238    -0.23400
H612        H  0.41100781  0.35520987  0.95934844     0.17800
C613        C  0.18042400  0.11359832  0.63554244    -0.27400
C614        C  0.19343722  0.10035604  0.60774401     0.06200
C615        C  0.17554580  0.07015546  0.57763904     0.25800
C616        C  0.14534735  0.05333161  0.57651590    -0.11900
C617        C  0.13240620  0.06629020  0.60517584    -0.25900
C618        C  0.15025139  0.09694883  0.63399959     0.36600
C619        C  0.22553966  0.11839958  0.60923508     0.06200
F620        F  0.18721718  0.05712232  0.54859197    -0.19700
H621        H  0.13210252  0.02987737  0.55389889     0.16000
F622        F  0.13861712  0.11067199  0.66145050    -0.23400
H623        H  0.19361753  0.13661485  0.65926830     0.17800
C624        C  0.24266930  0.15168948  0.60452047     0.25800
C625        C  0.26888037  0.16584842  0.00320295    -0.11900
C626        C  0.28636919  0.15149809  0.60663148    -0.25900
C627        C  0.26926552  0.11832993  0.61280066     0.39100
C628        C  0.23925593  0.10216041  0.61435159    -0.27600
F629        F  0.23289322  0.17580455  0.02367459    -0.19700
H630        H  0.28269647  0.19080319  0.99616812     0.16000
F631        F  0.28128233  0.10127237  0.61715366    -0.23400
H632        H  0.22665908  0.07676588  0.61947677     0.17800
C633        C  0.32351208  0.67584743  0.09339013     0.81000
N634        N  0.34056988  0.70869384  0.09782902    -0.77300
C635        C  0.36992345  0.72499886  0.10221953     0.83400
N636        N  0.38226981  0.70793088  0.10184704    -0.77300
C637        C  0.36543957  0.67493705  0.09735328     0.83500
N638        N  0.33611817  0.65917429  0.09306571    -0.79000
C639        C  0.31479921  0.65642312  0.23034388     0.81000
N640        N  0.32949251  0.64185598  0.23059688    -0.77300
C641        C  0.35906973  0.66009973  0.23471527     0.83400
N642        N  0.37358777  0.69297817  0.23999807    -0.77300
C643        C  0.35927657  0.70779160  0.24050380     0.83500
N644        N  0.32989699  0.68933044  0.23541484    -0.79000
C645        C  0.20517996  0.86745260  0.12379901     0.81000
N646        N  0.19182702  0.88347561  0.12716365    -0.77300
C647        C  0.16299731  0.86750181  0.13327871     0.83400
N648        N  0.14753579  0.83511398  0.13602303    -0.77300
C649        C  0.16047153  0.81868605  0.13318152     0.83500
N650        N  0.18929869  0.83507231  0.12705268    -0.79000
C651        C  0.19853179  0.86219167  0.25141000     0.81000
N652        N  0.18380632  0.87674225  0.25427935    -0.77300
C653        C  0.15460721  0.85887224  0.25838503     0.83400
N654        N  0.14048560  0.82644053  0.26031578    -0.77300
C655        C  0.15498694  0.81178015  0.25824587     0.83500
N656        N  0.18386470  0.82988743  0.25379325    -0.79000
C657        C  0.10620710  0.55492372  0.08334335     0.77200
Tb658      Tb  0.47157883  0.50580629  0.10889301     1.80700
O659        O  0.09375953  0.56140614  0.11624178    -0.50800
O660        O  0.07631860  0.01538168  0.17214255    -0.58200
C661        C  0.04112720  0.57399164  0.11524846     0.93000
O662        O  0.47626500  0.55529465  0.10393474    -0.57800
Tb663      Tb  0.04760276  0.51228975  0.09912770     1.78100
O664        O  0.43602752  0.98436733  0.08707369    -0.58300
O665        O  0.00919399  0.98819780  0.14296257    -0.77100
O666        O  0.04947542  0.55935146  0.08674870    -0.76400
O667        O  0.02723942  0.50069249  0.01783445    -0.61700
C668        C  0.48503887  0.96814500  0.10371665     0.92600
O669        O  0.48602523  0.49072709  0.17547210    -0.73600
C670        C  0.41854337  0.47481452  0.15461743     0.76100
C671        C  0.06901332  0.99158800  0.13951772     0.77000
O672        O  0.08915414  0.52808669  0.05649844    -0.58900
O673        O  0.05304325  0.98895426  0.10337577    -0.50800
O674        O  0.99350088  0.51232590  0.02216120    -0.76900
O675        O  0.03466921  0.52291015  0.17564728    -0.60900
C676        C  0.01074372  0.50543424  0.19397402     0.90800
C677        C  0.00984423  0.50621615  0.99801141     0.92100
C678        C  0.45159102  0.54289389  0.08169112     0.76400
O679        O  0.44287945  0.49613808  0.17762562    -0.50200
O680        O  0.43797805  0.51263611  0.06932487    -0.51300
O681        O  0.47620269  0.98173617  0.07898097    -0.64200
O682        O  0.01809898  0.55813441  0.13711356    -0.65300
C683        C  0.10894304  0.55352529  0.31345097     0.77200
Tb684      Tb  0.48303772  0.52145991  0.35308735     1.80700
O685        O  0.10455333  0.55584139  0.35871009    -0.50800
O686        O  0.05055210  0.97874463  0.39089435    -0.58200
C687        C  0.05152720  0.58139105  0.33434742     0.93000
O688        O  0.47151756  0.56030540  0.36244486    -0.57800
Tb689      Tb  0.05363470  0.51958397  0.34906842     1.78100
O690        O  0.43274307  0.98561860  0.29758497    -0.58300
O691        O  0.99681314  0.97743767  0.33547447    -0.77100
O692        O  0.06222338  0.57159954  0.36351439    -0.76400
O693        O  0.03637633  0.51763043  0.26985127    -0.61700
C694        C  0.47290204  0.95005521  0.33903508     0.92600
O695        O  0.50907436  0.54036669  0.43198751    -0.73600
C696        C  0.42514313  0.48494251  0.37542339     0.76100
C697        C  0.05480846  0.97233433  0.34694603     0.77000
O698        O  0.08574738  0.53525625  0.28570376    -0.58900
O699        O  0.05170904  0.98806900  0.31713333    -0.50800
O700        O  0.98874645  0.49511737  0.26951845    -0.76900
O701        O  0.03818892  0.52409307  0.42726156    -0.60900
C702        C  0.02378322  0.53440908  0.44738431     0.90800
C703        C  0.01164580  0.50529110  0.24735406     0.92100
C704        C  0.46618418  0.55973380  0.31685176     0.76400
O705        O  0.44510105  0.51005400  0.40277764    -0.50200
O706        O  0.47001831  0.54071471  0.28903525    -0.51300
O707        O  0.46421498  0.96254415  0.37091253    -0.64200
O708        O  0.02636590  0.56246337  0.31237123    -0.65300
C709        C  0.14088575  0.73078398  0.28199666    -0.27400
C710        C  0.11051327  0.71125337  0.28126000     0.06200
C711        C  0.09489320  0.72480252  0.27043195     0.25800
C712        C  0.10945903  0.75717697  0.26205874    -0.11900
C713        C  0.13985594  0.77686170  0.26389318    -0.25900
C714        C  0.15543559  0.76301809  0.27304198     0.36600
C715        C  0.09563264  0.67768224  0.29468461     0.06200
F716        F  0.06548146  0.70686776  0.26776467    -0.19700
H717        H  0.09678538  0.76687121  0.25430508     0.16000
F718        F  0.18225849  0.78179259  0.94344351    -0.23400
H719        H  0.14729685  0.71920777  0.93154365     0.17800
C720        C  0.10461057  0.65698126  0.27846193     0.25800
C721        C  0.09123894  0.62619945  0.29379121    -0.11900
C722        C  0.06825747  0.61522443  0.32424515    -0.25900
C723        C  0.05874949  0.63530966  0.33930063     0.36700
C724        C  0.07274365  0.66644954  0.32568955    -0.27600
F725        F  0.12555456  0.66592045  0.24645120    -0.19700
H726        H  0.09804128  0.61043583  0.28033716     0.16000
F727        F  0.03584551  0.62475951  0.36724897    -0.23400
H728        H  0.06571037  0.68183232  0.33990078     0.17800
C729        C  0.34117352  0.93053360  0.24374802    -0.27400
C730        C  0.32315824  0.93381253  0.27605520     0.06200
C731        C  0.33462267  0.95066527  0.32414061     0.25800
C732        C  0.36349073  0.96376348  0.33956730    -0.11900
C733        C  0.38159809  0.96076719  0.30719607    -0.25900
C734        C  0.37040360  0.94452974  0.25872845     0.36600
C735        C  0.29176883  0.91669545  0.26188599     0.06200
F736        F  0.34403713  0.97744174  0.96095191    -0.19700
H737        H  0.39766964  0.00132897  0.94503484     0.16000
F738        F  0.37962862  0.42564936  0.31643083    -0.23400
H739        H  0.33249424  0.91685023  0.20713101     0.17800
C740        C  0.27773228  0.93300670  0.26566983     0.25800
C741        C  0.24738400  0.91539363  0.25963783    -0.11900
C742        C  0.23060531  0.88125678  0.25015428    -0.25900
C743        C  0.24506216  0.86535004  0.24317106     0.36700
C744        C  0.27523341  0.88296887  0.24905891    -0.27600
F745        F  0.29335053  0.96584738  0.27664322    -0.19700
H746        H  0.23705159  0.92842271  0.26444393     0.16000
F747        F  0.23024187  0.83263611  0.23135586    -0.23400
H748        H  0.28569157  0.87001903  0.24555465     0.17800
C749        C  0.07233285  0.91843023  0.26885891    -0.27400
C750        C  0.09002421  0.91641460  0.30340068     0.06200
C751        C  0.09346641  0.92991024  0.35315344     0.25800
C752        C  0.08045963  0.94641183  0.36756890    -0.11900
C753        C  0.06439707  0.95045239  0.33241357    -0.25900
C754        C  0.05999222  0.93578318  0.28291619     0.36600
C755        C  0.10619827  0.90190324  0.28726804     0.06200
F756        F  0.10985779  0.92757859  0.38760957    -0.19700
H757        H  0.08413443  0.95740640  0.40586724     0.16000
F758        F  0.04417873  0.93862724  0.24799795    -0.23400
H759        H  0.06904927  0.90765496  0.23052764     0.17800
C760        C  0.09178258  0.86838924  0.27251239     0.25800
C761        C  0.10767112  0.85483862  0.26145383    -0.11900
C762        C  0.13825433  0.87442318  0.26453962    -0.25900
C763        C  0.15251719  0.90830850  0.27685273     0.36700
C764        C  0.13656362  0.92171975  0.28851192    -0.27600
F765        F  0.06243706  0.84860245  0.27097353    -0.19700
H766        H  0.09591016  0.82873311  0.25144295     0.16000
F767        F  0.19500208  0.93216913  0.87908027    -0.23400
H768        H  0.14800302  0.94773575  0.29940082     0.17800
C769        C  0.06797964  0.66191438  0.16080514    -0.27400
C770        C  0.09176903  0.67901371  0.13266208     0.06200
C771        C  0.09856375  0.66133955  0.09879023     0.25800
C772        C  0.08215192  0.62741432  0.09371248    -0.11900
C773        C  0.05840512  0.61016385  0.12202457    -0.25900
C774        C  0.05148578  0.62790488  0.15580705     0.36600
C775        C  0.10918799  0.71512008  0.13758762     0.06200
F776        F  0.12053094  0.67683202  0.06921986    -0.19700
H777        H  0.08793061  0.61466746  0.06707191     0.16000
F778        F  0.02886204  0.61259408  0.18417255    -0.23400
H779        H  0.06217738  0.67480729  0.18668830     0.17800
C780        C  0.09581754  0.73192519  0.13425512     0.25800
C781        C  0.11263119  0.76555761  0.13373055    -0.11900
C782        C  0.14312629  0.78323842  0.13662174    -0.25900
C783        C  0.15647563  0.76656541  0.14266439     0.36700
C784        C  0.13962264  0.73293900  0.14311606    -0.27600
F785        F  0.06648193  0.71573350  0.12940344    -0.19700
H786        H  0.10162475  0.77760991  0.12992536     0.16000
F787        F  0.18577739  0.78257830  0.14846583    -0.23400
H788        H  0.15040498  0.72067990  0.14736649     0.17800
C789        C  0.34742983  0.96817107  0.14402199    -0.27400
C790        C  0.33005325  0.93737543  0.11558487     0.06200
C791        C  0.34364412  0.92456036  0.08832309     0.25800
C792        C  0.37392865  0.94205497  0.09020985    -0.11900
C793        C  0.39128267  0.97269236  0.11903483    -0.25900
C794        C  0.37770187  0.98569231  0.14584794     0.36600
C795        C  0.29791126  0.91890419  0.11509652     0.06200
F796        F  0.32769128  0.89561119  0.05853050    -0.19700
H797        H  0.38380323  0.93178949  0.06848398     0.16000
F798        F  0.41180534  0.49774281  0.25235482    -0.23400
H799        H  0.33751409  0.97852705  0.16540649     0.17800
C800        C  0.28134652  0.88625910  0.12352842     0.25800
C801        C  0.25125670  0.86956504  0.12457162    -0.11900
C802        C  0.23695842  0.88516745  0.11868870    -0.25900
C803        C  0.25357623  0.91779621  0.10957617     0.36700
C804        C  0.28365615  0.93433635  0.10781133    -0.27600
F805        F  0.29432135  0.87084407  0.13323544    -0.19700
H806        H  0.23932145  0.84463170  0.13175606     0.16000
F807        F  0.24095312  0.93388581  0.10213546    -0.23400
H808        H  0.29588346  0.95934095  0.10079488     0.17800
C809        C  0.08322059  0.92602876  0.10703356    -0.27400
C810        C  0.10495759  0.93471467  0.14444437     0.06200
C811        C  0.11345498  0.96101926  0.18142456     0.25800
C812        C  0.10081257  0.97851018  0.18043115    -0.11900
C813        C  0.07968908  0.97046297  0.14232332    -0.25900
C814        C  0.07070353  0.94373492  0.10577462     0.36600
C815        C  0.11962787  0.91733871  0.14341143     0.06200
F816        F  0.13382809  0.96967583  0.21888106    -0.19700
H817        H  0.10806413  0.99888629  0.20909686     0.16000
F818        F  0.05037783  0.93513471  0.06821452    -0.23400
H819        H  0.07656508  0.90611050  0.07779255     0.17800
C820        C  0.10361949  0.88323696  0.13742556     0.25800
C821        C  0.11787063  0.86733333  0.13441365    -0.11900
C822        C  0.14837604  0.88501111  0.13734520    -0.25900
C823        C  0.16434799  0.91922463  0.14448625     0.36700
C824        C  0.15004974  0.93505150  0.14723215    -0.27600
F825        F  0.07420385  0.86527207  0.13519881    -0.19700
H826        H  0.10487324  0.84102288  0.12957706     0.16000
F827        F  0.19377708  0.93758871  0.14926216    -0.23400
H828        H  0.16286668  0.96135998  0.15161521     0.17800
C829        C  0.37880066  0.59838360  0.24141212    -0.27400
C830        C  0.40880090  0.61904777  0.25446302     0.06200
C831        C  0.42243584  0.65268246  0.25733715     0.25800
C832        C  0.40621093  0.66550766  0.24893443    -0.11900
C833        C  0.37585381  0.64515152  0.23822381    -0.25900
C834        C  0.36233686  0.61120539  0.23363229     0.36600
C835        C  0.42547848  0.60577600  0.26906992     0.06200
F836        F  0.45146340  0.67319117  0.26934823    -0.19700
H837        H  0.41755534  0.69168642  0.25232441     0.16000
F838        F  0.33323402  0.59037177  0.22301015    -0.23400
H839        H  0.36795906  0.57229223  0.23910183     0.17800
C840        C  0.43656986  0.61189606  0.31866770     0.25800
C841        C  0.45122091  0.59824921  0.33318415    -0.11900
C842        C  0.45489365  0.57803918  0.29874378    -0.25900
C843        C  0.44548725  0.57373212  0.24834923     0.36700
C844        C  0.43052036  0.58714781  0.23390841    -0.27600
F845        F  0.43234338  0.63020463  0.35337041    -0.19700
H846        H  0.45917868  0.60290946  0.37180227     0.16000
F847        F  0.45036043  0.55629343  0.21317840    -0.23400
H848        H  0.42280049  0.58299186  0.19524973     0.17800
C849        C  0.44668561  0.86677610  0.27089181    -0.27400
C850        C  0.42050137  0.84681201  0.29154035     0.06200
C851        C  0.41124725  0.86072000  0.32752921     0.25800
C852        C  0.42830578  0.89430352  0.34286328    -0.11900
C853        C  0.45477392  0.91449796  0.32234145    -0.25900
C854        C  0.46363791  0.90025512  0.28572664     0.36600
C855        C  0.40442299  0.81130808  0.27797173     0.06200
F856        F  0.38630561  0.84170373  0.34902932    -0.19700
H857        H  0.42091414  0.90442413  0.37116866     0.16000
F858        F  0.48881633  0.91845884  0.26443284    -0.23400
H859        H  0.45415521  0.85620625  0.24351341     0.17800
C860        C  0.37665954  0.79326063  0.25253673     0.25800
C861        C  0.36225608  0.75963955  0.23951732    -0.11900
C862        C  0.37534325  0.74360249  0.25168068    -0.25900
C863        C  0.40326833  0.76199270  0.27708388     0.36700
C864        C  0.41757854  0.79547113  0.28979167    -0.27600
F865        F  0.36375098  0.80820139  0.23967623    -0.19700
H866        H  0.34084003  0.74612951  0.21980776     0.16000
F867        F  0.41647711  0.74765933  0.29133011    -0.23400
H868        H  0.43897599  0.80914821  0.30963656     0.17800
C869        C  0.23741275  0.63376199  0.22270403    -0.27400
C870        C  0.22382637  0.60695659  0.24884898     0.06200
C871        C  0.23945732  0.59439648  0.26408036     0.25800
C872        C  0.26859285  0.60922509  0.25471614    -0.11900
C873        C  0.28284496  0.63742311  0.23147451    -0.25900
C874        C  0.26679662  0.64930344  0.21487563     0.36600
C875        C  0.19439885  0.59427005  0.26447200     0.06200
F876        F  0.22679614  0.56850892  0.28964830    -0.19700
H877        H  0.28044397  0.59977877  0.26837613     0.16000
F878        F  0.27966239  0.67648771  0.19230809    -0.23400
H879        H  0.22565296  0.64372621  0.21073510     0.17800
C880        C  0.19034628  0.59732378  0.31516659     0.25800
C881        C  0.16259713  0.58496302  0.33043731    -0.11900
C882        C  0.13831036  0.56922226  0.29556801    -0.25900
C883        C  0.14254181  0.56730767  0.24452028     0.36700
C884        C  0.17043709  0.57982836  0.22920667    -0.27600
F885        F  0.21334883  0.61258721  0.34992040    -0.19700
H886        H  0.16007153  0.58732061  0.36978349     0.16000
F887        F  0.11985851  0.55333575  0.20943654    -0.23400
H888        H  0.17331345  0.57785118  0.18991817     0.17800
C889        C  0.41959596  0.65139684  0.10495678    -0.27400
C890        C  0.40225945  0.61829556  0.08532416     0.06200
C891        C  0.36588490  0.59496769  0.50107470     0.25800
C892        C  0.35086019  0.60870909  0.48876795    -0.11900
C893        C  0.37849769  0.65587542  0.09465626    -0.25900
C894        C  0.40797594  0.67011660  0.10938374     0.36600
C895        C  0.41475527  0.59853902  0.08096851     0.06200
F896        F  0.35218683  0.56778401  0.52370216    -0.19700
H897        H  0.32874636  0.59751376  0.49857915     0.16000
F898        F  0.42551817  0.70189497  0.12887412    -0.23400
H899        H  0.44215765  0.66276739  0.11765384     0.17800
C900        C  0.44232591  0.61060792  0.06350053     0.25800
C901        C  0.45421792  0.59216292  0.06236941    -0.11900
C902        C  0.43836611  0.56104637  0.07672711    -0.25900
C903        C  0.41048978  0.54846030  0.09220957     0.36700
C904        C  0.39909753  0.56726574  0.09517628    -0.27600
F905        F  0.41740046  0.58197547  0.42433217    -0.19700
H906        H  0.44790573  0.56350394  0.46364746     0.16000
F907        F  0.39507151  0.51881287  0.10792176    -0.23400
H908        H  0.37831111  0.55763911  0.11023925     0.17800
C909        C  0.43365658  0.81222431  0.10006026    -0.27400
C910        C  0.41988411  0.82881738  0.10401097     0.06200
C911        C  0.39000612  0.81120275  0.10984735     0.25800
C912        C  0.37422704  0.77770277  0.11007801    -0.11900
C913        C  0.38781734  0.76091002  0.10523645    -0.25900
C914        C  0.41798086  0.77874301  0.10146047     0.36600
C915        C  0.43674579  0.86440573  0.10262063     0.06200
F916        F  0.37603145  0.82638061  0.11621592    -0.19700
H917        H  0.35118895  0.76493354  0.11410180     0.16000
F918        F  0.43236406  0.76395493  0.09781803    -0.23400
H919        H  0.45657596  0.82509145  0.09497844     0.17800
C920        C  0.46379637  0.88526126  0.13009180     0.25800
C921        C  0.47920021  0.91865948  0.12947696    -0.11900
C922        C  0.46806729  0.93232269  0.10182023    -0.25900
C923        C  0.44102779  0.91148713  0.07406676     0.36700
C924        C  0.42569642  0.87786039  0.07428776    -0.27600
F925        F  0.47512895  0.87358521  0.15880495    -0.19700
H926        H  0.49988280  0.93386515  0.15140714     0.16000
F927        F  0.42922125  0.92341613  0.04711103    -0.23400
H928        H  0.39860750  0.85541431  0.45381649     0.17800
C929        C  0.18584337  0.62395381  0.10516737    -0.27400
C930        C  0.19872675  0.60980573  0.07940491     0.06200
C931        C  0.18085614  0.57858910  0.05241998     0.25800
C932        C  0.15074449  0.56163947  0.05204795    -0.11900
C933        C  0.13781342  0.57521820  0.07911896    -0.25900
C934        C  0.15562273  0.60679833  0.10527507     0.36600
C935        C  0.23069450  0.62690471  0.08226819     0.06200
F936        F  0.19254120  0.56435328  0.02657586    -0.19700
H937        H  0.13756182  0.53736558  0.03182824     0.16000
F938        F  0.14393391  0.62085581  0.13166018    -0.23400
H939        H  0.19921376  0.64786535  0.12648726     0.17800
C940        C  0.24864828  0.65907763  0.07216494     0.25800
C941        C  0.26491090  0.65830503  0.47778329    -0.11900
C942        C  0.29154289  0.65855794  0.08862213    -0.25900
C943        C  0.27346570  0.62626140  0.09845195     0.39100
C944        C  0.24341903  0.61078354  0.09549210    -0.27600
F945        F  0.22652829  0.66471504  0.49551286    -0.19700
H946        H  0.27748483  0.68312244  0.46980383     0.16000
F947        F  0.28471990  0.60997257  0.11303561    -0.23400
H948        H  0.23002244  0.58624598  0.10457667     0.17800
C949        C  0.30747689  0.65471396  0.46333390     0.81000
N950        N  0.32353411  0.68633576  0.45580184    -0.77300
C951        C  0.35229198  0.70209558  0.44988733     0.83400
N952        N  0.36517565  0.68572135  0.45185707    -0.77300
C953        C  0.34957362  0.65392894  0.45913822     0.83500
N954        N  0.32073844  0.63869970  0.46531408    -0.79000
C955        C  0.31984608  0.67726350  0.95764242     0.81000
N956        N  0.33239050  0.66060540  0.96027376    -0.77300
C957        C  0.36165187  0.67588231  0.96224414     0.83400
N958        N  0.37862036  0.70859069  0.96151055    -0.77300
C959        C  0.36650750  0.72577975  0.95878199     0.83500
N960        N  0.33711489  0.70983512  0.95656163    -0.79000
C961        C  0.21329585  0.87752745  0.76286045     0.81000
N962        N  0.20049032  0.89426868  0.76291660    -0.77300
C963        C  0.17104188  0.87825214  0.76252975     0.83400
N964        N  0.15474123  0.84547181  0.76109121    -0.77300
C965        C  0.16699147  0.82847602  0.76069407     0.83500
N966        N  0.19622830  0.84467962  0.76155229    -0.79000
C967        C  0.20930185  0.86592366  0.90147017     0.81000
N968        N  0.19595554  0.88174741  0.89854436    -0.77300
C969        C  0.16652025  0.86489933  0.89392086     0.83400
N970        N  0.15062850  0.83216406  0.89187957    -0.77300
C971        C  0.16370706  0.81624190  0.89479668     0.83500
N972        N  0.19298497  0.83318006  0.89953394    -0.79000
C973        C  0.10496154  0.56117386  0.56656722     0.77200
Tb974      Tb  0.48080099  0.52431872  0.59348744     1.80700
O975        O  0.09957803  0.56236703  0.61152468    -0.50800
O976        O  0.05274898  0.98802135  0.69064417    -0.58200
C977        C  0.04551211  0.58910258  0.63656801     0.93000
O978        O  0.46369025  0.55813035  0.60460381    -0.57800
Tb979      Tb  0.04888126  0.52543417  0.59732805     1.78100
O980        O  0.41866381  0.96635476  0.61710117    -0.58300
O981        O  0.99860852  0.95538335  0.59653033    -0.77100
O982        O  0.05781307  0.57779385  0.61112797    -0.76400
O983        O  0.02564676  0.51397747  0.51941324    -0.61700
C984        C  0.47249160  0.93944936  0.56742158     0.92600
O985        O  0.48873185  0.51583377  0.67397504    -0.73600
C986        C  0.42088200  0.48026035  0.59556679     0.76100
C987        C  0.05977128  0.97114453  0.66496260     0.77000
O988        O  0.08238405  0.54383926  0.53686904    -0.58900
O989        O  0.05580932  0.97014413  0.61874510    -0.50800
O990        O  0.00977836  0.54593216  0.52495606    -0.76900
O991        O  0.03871911  0.53250482  0.67839422    -0.60900
C992        C  0.01525280  0.52536141  0.69674456     0.90800
C993        C  0.02018808  0.53219806  0.50035237     0.92100
C994        C  0.45987849  0.55963443  0.55943668     0.76400
O995        O  0.43660256  0.50376975  0.62925159    -0.50200
O996        O  0.46832298  0.54532486  0.53102935    -0.51300
O997        O  0.46002816  0.95449221  0.57172261    -0.64200
O998        O  0.01850936  0.57204048  0.64182450    -0.65300
C999        C  0.10322970  0.55060388  0.87393866     0.77200
Tb1000     Tb  0.46547201  0.50490268  0.85007987     1.80700
O1001       O  0.08427511  0.53859902  0.90462340    -0.50800
O1002       O  0.07763820  0.00905573  0.92084715    -0.58200
C1003       C  0.04193290  0.57472669  0.86456286     0.93000
O1004       O  0.44157848  0.52040615  0.90544971    -0.57800
Tb1005     Tb  0.04347679  0.50987058  0.84575138     1.78100
O1006       O  0.43344660  0.97220789  0.84735019    -0.58300
O1007       O  0.00995903  0.97531703  0.86261848    -0.77100
O1008       O  0.05041816  0.55850172  0.88189269    -0.76400
O1009       O  0.03580675  0.52760855  0.77425271    -0.61700
C1010       C  0.48577283  0.95781953  0.88376960     0.92600
O1011       O  0.48320639  0.50537879  0.92926661    -0.73600
C1012       C  0.40919311  0.46650492  0.80189526     0.76100
C1013       C  0.06983398  0.98402929  0.89052691     0.77000
O1014       O  0.09253863  0.54348653  0.82949225    -0.58900
O1015       O  0.05325800  0.97957433  0.85394435    -0.50800
O1016       O  0.98943832  0.51292530  0.76792174    -0.76900
O1017       O  0.01960670  0.49340605  0.91789312    -0.60900
C1018       C  0.00844809  0.50577882  0.94421339     0.90800
C1019       C  0.01341688  0.52200056  0.74961429     0.92100
C1020       C  0.44848319  0.54603016  0.88820411     0.76400
O1021       O  0.41484673  0.47699734  0.84748387    -0.50200
O1022       O  0.46449440  0.55166853  0.85292925    -0.51300
O1023       O  0.47828965  0.97679778  0.89910321    -0.64200
O1024       O  0.01817129  0.56168356  0.83851095    -0.65300
C1025       C  0.13937540  0.73119121  0.91241392    -0.27400
C1026       C  0.11222305  0.71302968  0.88516989     0.06200
C1027       C  0.10192506  0.72888236  0.86161913     0.25800
C1028       C  0.11876526  0.76258240  0.86533696    -0.11900
C1029       C  0.14613922  0.78081533  0.89208126    -0.25900
C1030       C  0.15634531  0.76488312  0.91582044     0.36600
C1031       C  0.09465397  0.67756869  0.88187844     0.06200
F1032       F  0.07591811  0.71176469  0.83422542    -0.19700
H1033       H  0.11062295  0.77441535  0.84639889     0.16000
F1034       F  0.18482424  0.78071000  0.27514170    -0.23400
H1035       H  0.15366669  0.72150619  0.29135702     0.17800
C1036       C  0.10638598  0.65977231  0.86604107     0.25800
C1037       C  0.08935059  0.62604924  0.86249041    -0.11900
C1038       C  0.06044819  0.60994351  0.87382470    -0.25900
C1039       C  0.04885921  0.62768073  0.89052296     0.36700
C1040       C  0.06597307  0.66137869  0.89474268    -0.27600
F1041       F  0.13387349  0.67491505  0.85220896    -0.19700
H1042       H  0.09831484  0.61244344  0.84908012     0.16000
F1043       F  0.02118374  0.61243919  0.90331829    -0.23400
H1044       H  0.05687491  0.67486930  0.90796772     0.17800
C1045       C  0.34287321  0.91676359  0.87011336    -0.27400
C1046       C  0.33301959  0.93210928  0.90172812     0.06200
C1047       C  0.35307074  0.96249883  0.92924545     0.25800
C1048       C  0.38263145  0.97768370  0.92409589    -0.11900
C1049       C  0.39254913  0.96292897  0.89113371    -0.25900
C1050       C  0.37242936  0.93206897  0.86458093     0.36600
C1051       C  0.30171840  0.91635713  0.90497476     0.06200
F1052       F  0.31755859  0.95315054  0.35702040    -0.19700
H1053       H  0.37175369  0.97644431  0.37699050     0.16000
F1054       F  0.38535152  0.41552238  0.71828428    -0.23400
H1055       H  0.32754877  0.89326956  0.84871521     0.17800
C1056       C  0.28802606  0.93136235  0.89127794     0.25800
C1057       C  0.25798987  0.91517337  0.89140698    -0.11900
C1058       C  0.24122996  0.88381212  0.90513728    -0.25900
C1059       C  0.25526821  0.86930457  0.92027796     0.36700
C1060       C  0.28523005  0.88546341  0.91982139    -0.27600
F1061       F  0.30356680  0.96108006  0.87587902    -0.19700
H1062       H  0.24779370  0.92681633  0.87927006     0.16000
F1063       F  0.24021486  0.83954505  0.93557811    -0.23400
H1064       H  0.29563833  0.87380077  0.93088202     0.17800
C1065       C  0.08382111  0.91857433  0.86120071    -0.27400
C1066       C  0.10691634  0.92908489  0.89646458     0.06200
C1067       C  0.11608246  0.95598384  0.93243932     0.25800
C1068       C  0.10284548  0.97284534  0.93195206    -0.11900
C1069       C  0.08057353  0.96329053  0.89521169    -0.25900
C1070       C  0.07081414  0.93561316  0.86019039     0.36600
C1071       C  0.12198667  0.91253402  0.89454788     0.06200
F1072       F  0.13800107  0.96604693  0.96764790    -0.19700
H1073       H  0.11073182  0.99406968  0.95924945     0.16000
F1074       F  0.04950733  0.92565928  0.82378934    -0.23400
H1075       H  0.07654737  0.89779878  0.83332490     0.17800
C1076       C  0.10690653  0.87949521  0.89954883     0.25800
C1077       C  0.12155258  0.86421795  0.89868686    -0.11900
C1078       C  0.15147846  0.88159772  0.89273079    -0.25900
C1079       C  0.16638084  0.91463602  0.88656778     0.36700
C1080       C  0.15163655  0.92988007  0.88751318    -0.27600
F1081       F  0.07822402  0.86228454  0.90672849    -0.19700
H1082       H  0.10939748  0.83876476  0.90356977     0.16000
F1083       F  0.18186667  0.92847526  0.27960675    -0.23400
H1084       H  0.16334800  0.95532120  0.88257787     0.17800
C1085       C  0.06877023  0.66857063  0.71622344    -0.27400
C1086       C  0.09737372  0.68935014  0.70417962     0.06200
C1087       C  0.10914057  0.67679099  0.67126746     0.25800
C1088       C  0.09229104  0.64420160  0.64993264    -0.11900
C1089       C  0.06334885  0.62341828  0.66090820    -0.25900
C1090       C  0.05189340  0.63593266  0.69511546     0.36600
C1091       C  0.11422712  0.72446652  0.72344011     0.06200
F1092       F  0.13654539  0.69638493  0.65804745    -0.19700
H1093       H  0.10182918  0.63541714  0.62399541     0.16000
F1094       F  0.02440769  0.61681529  0.70829434    -0.23400
H1095       H  0.05938398  0.67775081  0.74177040     0.17800
C1096       C  0.10320502  0.74305840  0.71479032     0.25800
C1097       C  0.12004390  0.77661699  0.72916989    -0.11900
C1098       C  0.14836243  0.79246073  0.75196618    -0.25900
C1099       C  0.15898623  0.77364377  0.76233721     0.36700
C1100       C  0.14198689  0.73993515  0.74818723    -0.27600
F1101       F  0.07677765  0.72904195  0.68982421    -0.19700
H1102       H  0.11128125  0.79036086  0.72034575     0.16000
F1103       F  0.18577549  0.78774788  0.78588873    -0.23400
H1104       H  0.15064136  0.72589979  0.75590138     0.17800
C1105       C  0.35775206  0.95523113  0.75003097    -0.27400
C1106       C  0.33237687  0.93302686  0.71899412     0.06200
C1107       C  0.33467791  0.92246130  0.67031946     0.25800
C1108       C  0.36192953  0.93422067  0.65285194    -0.11900
C1109       C  0.38748472  0.95643832  0.68371140    -0.25900
C1110       C  0.38508758  0.96662571  0.73277046     0.36600
C1111       C  0.30337894  0.92036294  0.73705984     0.06200
F1112       F  0.31047565  0.90122501  0.63930989    -0.19700
H1113       H  0.36301598  0.92611311  0.61485050     0.16000
F1114       F  0.38870887  0.49272786  0.66474608    -0.23400
H1115       H  0.35636286  0.96356396  0.78770287     0.17800
C1116       C  0.28511062  0.88751120  0.74308257     0.25800
C1117       C  0.25648288  0.87443246  0.75407346    -0.11900
C1118       C  0.24508865  0.89362829  0.75836922    -0.25900
C1119       C  0.26397595  0.92706372  0.75458511     0.36700
C1120       C  0.29290622  0.94024429  0.74429598    -0.27600
F1121       F  0.29475104  0.86779236  0.73679495    -0.19700
H1122       H  0.24297351  0.84881847  0.75734867     0.16000
F1123       F  0.25441717  0.94687256  0.75898784    -0.23400
H1124       H  0.30678653  0.96567208  0.73986340     0.17800
C1125       C  0.08788951  0.91818678  0.67690667    -0.27400
C1126       C  0.10654563  0.93375231  0.72070861     0.06200
C1127       C  0.10822527  0.96038617  0.74778429     0.25800
C1128       C  0.09145730  0.97116240  0.73109318    -0.11900
C1129       C  0.07360242  0.95631783  0.68625915    -0.25900
C1130       C  0.07180414  0.92950864  0.65946453     0.36600
C1131       C  0.12369850  0.92148317  0.73768314     0.06200
F1132       F  0.12599969  0.97587600  0.79029470    -0.19700
H1133       H  0.09326142  0.99190005  0.75231018     0.16000
F1134       F  0.05456161  0.91429582  0.61633081    -0.23400
H1135       H  0.08624924  0.89754314  0.65559325     0.17800
C1136       C  0.10944243  0.88929502  0.74730027     0.25800
C1137       C  0.12524844  0.87636624  0.75804866    -0.11900
C1138       C  0.15573825  0.89486101  0.75828397    -0.25900
C1139       C  0.17017077  0.92771900  0.75078524     0.36700
C1140       C  0.15418677  0.94086885  0.74085626    -0.27600
F1141       F  0.08004027  0.87002784  0.74511599    -0.19700
H1142       H  0.11324838  0.85122900  0.76455768     0.16000
F1143       F  0.19948459  0.94681791  0.75108101    -0.23400
H1144       H  0.16555704  0.96582353  0.73351779     0.17800
C1145       C  0.37007659  0.60504652  0.94028607    -0.27400
C1146       C  0.40031029  0.62086085  0.94653922     0.06200
C1147       C  0.41756212  0.65467883  0.96169072     0.25800
C1148       C  0.40484768  0.67224405  0.96817811    -0.11900
C1149       C  0.37464208  0.65656264  0.96020057    -0.25900
C1150       C  0.35730485  0.62245603  0.94740566     0.36600
C1151       C  0.41364702  0.60229556  0.93429849     0.06200
F1152       F  0.44679019  0.67086911  0.97000218    -0.19700
H1153       H  0.41878822  0.69829406  0.97888465     0.16000
F1154       F  0.32800401  0.60577352  0.93977406    -0.23400
H1155       H  0.35620502  0.57915985  0.92806071     0.17800
C1156       C  0.40222679  0.57157632  0.94949394     0.25800
C1157       C  0.41433746  0.55401808  0.93579434    -0.11900
C1158       C  0.43763877  0.56623461  0.90577688    -0.25900
C1159       C  0.44912279  0.59688405  0.89058689     0.36700
C1160       C  0.43726174  0.61464436  0.90482950    -0.27600
F1161       F  0.37933086  0.55835682  0.97753853    -0.19700
H1162       H  0.40494276  0.53035520  0.94777248     0.16000
F1163       F  0.47160486  0.60959816  0.86148439    -0.23400
H1164       H  0.44609130  0.63780311  0.89143302     0.17800
C1165       C  0.46316414  0.87284133  0.90529072    -0.27400
C1166       C  0.43687053  0.86133705  0.92695953     0.06200
C1167       C  0.42762264  0.88235425  0.93631148     0.25800
C1168       C  0.44375946  0.91356836  0.92256070    -0.11900
C1169       C  0.46954474  0.92473371  0.89911888    -0.25900
C1170       C  0.47932408  0.90411102  0.89141683     0.36600
C1171       C  0.41873325  0.82709168  0.93758094     0.06200
F1172       F  0.40297318  0.87281945  0.95889203    -0.19700
H1173       H  0.43575165  0.92886835  0.92983108     0.16000
F1174       F  0.50443723  0.91397873  0.87043678    -0.23400
H1175       H  0.47085085  0.85725127  0.89781987     0.17800
C1176       C  0.38893750  0.80721930  0.92185921     0.25800
C1177       C  0.37217181  0.77483161  0.93046100    -0.11900
C1178       C  0.38472203  0.76096225  0.95340144    -0.25900
C1179       C  0.41466021  0.78068018  0.96850506     0.36700
C1180       C  0.43132593  0.81345442  0.96114080    -0.27600
F1181       F  0.37622608  0.81854508  0.89575705    -0.19700
H1182       H  0.34936380  0.76019544  0.91726229     0.16000
F1183       F  0.42791449  0.76839089  0.99022908    -0.23400
H1184       H  0.45425420  0.82819301  0.97352873     0.17800
C1185       C  0.24338576  0.65789378  0.93781396    -0.27400
C1186       C  0.22643667  0.62379960  0.93208369     0.06200
C1187       C  0.24019781  0.60763701  0.93786275     0.25800
C1188       C  0.27031724  0.62523941  0.94776654    -0.11900
C1189       C  0.28758383  0.65938899  0.95161855    -0.25900
C1190       C  0.27359610  0.67558960  0.94737483     0.36600
C1191       C  0.19473343  0.60521684  0.91765780     0.06200
F1192       F  0.22452180  0.57472512  0.93367688    -0.19700
H1193       H  0.28012197  0.61188375  0.95137940     0.16000
F1194       F  0.28895222  0.70847543  0.95165486    -0.23400
H1195       H  0.23327693  0.67087233  0.93341363     0.17800
C1196       C  0.17654687  0.61159098  0.94445942     0.25800
C1197       C  0.14669773  0.59359494  0.93039454    -0.11900
C1198       C  0.13470284  0.56985267  0.88837143    -0.25900
C1199       C  0.15287558  0.56380479  0.86110365     0.36700
C1200       C  0.18253515  0.58114121  0.87593440    -0.27600
F1201       F  0.18753221  0.63482864  0.98465387    -0.19700
H1202       H  0.13296997  0.59848339  0.95196251     0.16000
F1203       F  0.14176780  0.54034634  0.82110515    -0.23400
H1204       H  0.19611327  0.57599726  0.85440792     0.17800
C1205       C  0.40818345  0.63675994  0.46563335    -0.27400
C1206       C  0.39490839  0.60935682  0.49055137     0.06200
C1207       C  0.37270524  0.60407443  0.07135754     0.25800
C1208       C  0.36109643  0.62263969  0.07616778    -0.11900
C1209       C  0.36455983  0.63726616  0.46611710    -0.25900
C1210       C  0.39329418  0.65066964  0.45351118     0.36600
C1211       C  0.41194606  0.59702227  0.50777697     0.06200
F1212       F  0.35495174  0.57232637  0.05187969    -0.19700
H1213       H  0.33836658  0.61089794  0.06423464     0.16000
F1214       F  0.40730284  0.67751991  0.43017174    -0.23400
H1215       H  0.43050911  0.64803162  0.45693298     0.17800
C1216       C  0.42335032  0.58462104  0.47379164     0.25800
C1217       C  0.43984602  0.57355278  0.49065520    -0.11900
C1218       C  0.44507556  0.57450119  0.54183385    -0.25900
C1219       C  0.43373599  0.58721184  0.57581761     0.36700
C1220       C  0.41732575  0.59826637  0.55880305    -0.27600
F1221       F  0.45765110  0.64000084  0.04707929    -0.19700
H1222       H  0.47576686  0.60213113  0.05032558     0.16000
F1223       F  0.43797619  0.58843343  0.62554707    -0.23400
H1224       H  0.40878491  0.60788888  0.58556004     0.17800
C1225       C  0.41666505  0.78920812  0.44842370    -0.27400
C1226       C  0.40533686  0.80663178  0.46881080     0.06200
C1227       C  0.37551007  0.78948217  0.47529087     0.25800
C1228       C  0.35809289  0.75562884  0.46554479    -0.11900
C1229       C  0.36992197  0.73790397  0.44961889    -0.25900
C1230       C  0.39920662  0.75517116  0.43892828     0.36600
C1231       C  0.42481366  0.84182070  0.48848559     0.06200
F1232       F  0.36353780  0.80513353  0.49501731    -0.19700
H1233       H  0.33561440  0.74328610  0.47365675     0.16000
F1234       F  0.41128084  0.73927612  0.42093138    -0.23400
H1235       H  0.43936401  0.80191749  0.44162176     0.17800
C1236       C  0.44954739  0.85335417  0.52093553     0.25800
C1237       C  0.46520509  0.88520765  0.54561342    -0.11900
C1238       C  0.45649646  0.90623457  0.53890605    -0.25900
C1239       C  0.43264007  0.89519585  0.50444568     0.36700
C1240       C  0.41714031  0.86342221  0.47947512    -0.27600
F1241       F  0.45765715  0.83331759  0.53114927    -0.19700
H1242       H  0.48366194  0.89306437  0.57138130     0.16000
F1243       F  0.42418906  0.91501511  0.49478363    -0.23400
H1244       H  0.40512516  0.86227508  0.05221182     0.17800
C1245       C  0.18704474  0.61302523  0.56627681    -0.27400
C1246       C  0.19066420  0.60078462  0.52003484     0.06200
C1247       C  0.16614111  0.57630059  0.48906598     0.25800
C1248       C  0.13838692  0.56468883  0.50373881    -0.11900
C1249       C  0.13457382  0.57634092  0.55034837    -0.25900
C1250       C  0.15922288  0.60056875  0.58180800     0.36600
C1251       C  0.22002197  0.61391755  0.50383874     0.06200
F1252       F  0.16908632  0.56373565  0.44455484    -0.19700
H1253       H  0.11981132  0.54596960  0.47898545     0.16000
F1254       F  0.15647819  0.61223387  0.62734423    -0.23400
H1255       H  0.20583346  0.63189077  0.59061861     0.17800
C1256       C  0.23701315  0.64577072  0.49251544     0.25800
C1257       C  0.27876008  0.67469185  0.07535395    -0.11900
C1258       C  0.27666786  0.63947867  0.47458735    -0.25900
C1259       C  0.25915016  0.60713604  0.48491625     0.39100
C1260       C  0.23105474  0.59455213  0.49918668    -0.27600
F1261       F  0.23710286  0.67522564  0.05831478    -0.19700
H1262       H  0.29207335  0.69943389  0.06710914     0.16000
F1263       F  0.26911757  0.58770980  0.48199803    -0.23400
H1264       H  0.21801394  0.56978958  0.50744163     0.17800
C1265       C  0.80772198  0.15609324  0.97593615     0.81000
N1266       N  0.82457088  0.18817780  0.97122245    -0.77300
C1267       C  0.85330854  0.20328652  0.96543622     0.83400
N1268       N  0.86515214  0.18577123  0.96402836    -0.77300
C1269       C  0.84875122  0.15357530  0.96834083     0.83500
N1270       N  0.82002936  0.13891721  0.97520457    -0.79000
C1271       C  0.81792302  0.18520000  0.46494976     0.81000
N1272       N  0.83055852  0.16902239  0.47300989    -0.77300
C1273       C  0.85988385  0.18427692  0.47353296     0.83400
N1274       N  0.87639541  0.21580130  0.46550029    -0.77300
C1275       C  0.86432815  0.23229968  0.45707322     0.83500
N1276       N  0.83506152  0.21675520  0.45672297    -0.79000
C1277       C  0.71872594  0.38488507  0.23697659     0.81000
N1278       N  0.70584754  0.40152536  0.23611966    -0.77300
C1279       C  0.67665293  0.38582507  0.23991601     0.83400
N1280       N  0.66080594  0.35362693  0.24413549    -0.77300
C1281       C  0.67326445  0.33689633  0.24513845     0.83500
N1282       N  0.70211765  0.35272302  0.24132180    -0.79000
C1283       C  0.71010246  0.36154481  0.36251886     0.81000
N1284       N  0.69713073  0.37794181  0.36121672    -0.77300
C1285       C  0.66806015  0.36226312  0.36480878     0.83400
N1286       N  0.65226723  0.33028316  0.36969492    -0.77300
C1287       C  0.66489480  0.31382532  0.37134265     0.83500
N1288       N  0.69374966  0.32955536  0.36765647    -0.79000
C1289       C  0.60680517  0.06854393  0.08183923     0.77200
Tb1290     Tb  0.98588983  0.03677796  0.12083415     1.80700
O1291       O  0.60253664  0.06886281  0.12743536    -0.50800
O1292       O  0.56294092  0.50290311  0.17385967    -0.58200
C1293       C  0.54750057  0.09534575  0.15363978     0.93000
O1294       O  0.96890937  0.07055117  0.12592889    -0.57800
Tb1295     Tb  0.55169831  0.03199051  0.11706329     1.78100
O1296       O  0.92603145  0.46979109  0.09947819    -0.58300
O1297       O  0.50805372  0.46244050  0.08072797    -0.77100
O1298       O  0.55999085  0.08357345  0.13037138    -0.76400
O1299       O  0.52785772  0.01748886  0.03840501    -0.61700
C1300       C  0.97993134  0.44570124  0.06101212     0.92600
O1301       O  0.99659448  0.03109507  0.20184871    -0.73600
C1302       C  0.92624743  0.99633353  0.13325832     0.76100
C1303       C  0.56834396  0.48429430  0.14876116     0.77000
O1304       O  0.58354714  0.05134452  0.05371250    -0.58900
O1305       O  0.56228564  0.48107926  0.10269214    -0.50800
O1306       O  0.51276684  0.05016152  0.04195596    -0.76900
O1307       O  0.53901172  0.03887408  0.19707357    -0.60900
C1308       C  0.51460251  0.02955295  0.21394764     0.90800
C1309       C  0.52105546  0.03411069  0.01752067     0.92100
C1310       C  0.96433966  0.06937982  0.07998921     0.76400
O1311       O  0.94339912  0.02361661  0.15873864    -0.50200
O1312       O  0.97254667  0.05392453  0.05385906    -0.51300
O1313       O  0.96798636  0.46111526  0.05836335    -0.64200
O1314       O  0.52036271  0.07860667  0.15826227    -0.65300
C1315       C  0.60018805  0.05518719  0.38965218     0.77200
Tb1316     Tb  0.97578445  0.02553208  0.37859938     1.80700
O1317       O  0.58180765  0.04008228  0.41998710    -0.50800
O1318       O  0.56794658  0.49468884  0.39428309    -0.58200
C1319       C  0.53628133  0.07459663  0.37980502     0.93000
O1320       O  0.95349747  0.04269320  0.43482826    -0.57800
Tb1321     Tb  0.54008497  0.01218339  0.36299449     1.78100
O1322       O  0.93847601  0.47598923  0.31368118    -0.58300
O1323       O  0.50312699  0.46611437  0.33515484    -0.77100
O1324       O  0.54314616  0.05826322  0.40145326    -0.76400
O1325       O  0.53393845  0.03123058  0.29222313    -0.61700
C1326       C  0.98858803  0.45959158  0.36310040     0.92600
O1327       O  0.99063080  0.02023885  0.45632092    -0.73600
C1328       C  0.91956009  0.99151243  0.33290352     0.76100
C1329       C  0.56456043  0.47427085  0.35849883     0.77000
O1330       O  0.58861132  0.04959895  0.34622565    -0.58900
O1331       O  0.55157445  0.47390919  0.31972622    -0.50800
O1332       O  0.48667805  0.01284203  0.28316983    -0.76900
O1333       O  0.51622895  0.99420803  0.43449599    -0.60900
C1334       C  0.50241825  0.00320704  0.46039430     0.90800
C1335       C  0.51152392  0.02442419  0.26634837     0.92100
C1336       C  0.95947671  0.06750850  0.41609926     0.76400
O1337       O  0.92566643  0.99823038  0.37911287    -0.50200
O1338       O  0.97530645  0.07278773  0.38058159    -0.51300
O1339       O  0.98328619  0.47977350  0.38247229    -0.64200
O1340       O  0.51223210  0.06147849  0.35471927    -0.65300
C1341       C  0.64141231  0.22907688  0.39118979    -0.27400
C1342       C  0.61162090  0.21148889  0.37671014     0.06200
C1343       C  0.59957308  0.22777845  0.36086836     0.25800
C1344       C  0.61708716  0.26106947  0.35971742    -0.11900
C1345       C  0.64692381  0.27874179  0.37397141    -0.25900
C1346       C  0.65903354  0.26245171  0.38976621     0.36600
C1347       C  0.59305747  0.17638227  0.37942841     0.06200
F1348       F  0.57092301  0.21149806  0.34590592    -0.19700
H1349       H  0.60723869  0.27293620  0.34684360     0.16000
F1350       F  0.68870107  0.27975075  0.80913596    -0.23400
H1351       H  0.65675609  0.22120398  0.82890576     0.17800
C1352       C  0.60104574  0.15554517  0.35935852     0.25800
C1353       C  0.58296704  0.12231327  0.36180279    -0.11900
C1354       C  0.55656437  0.10958070  0.38308350    -0.25900
C1355       C  0.54847833  0.13019736  0.40294711     0.36700
C1356       C  0.56689104  0.16347529  0.40191209    -0.27600
F1357       F  0.62561598  0.16707718  0.33560897    -0.19700
H1358       H  0.58895050  0.10635285  0.34524056     0.16000
F1359       F  0.52280094  0.11810399  0.42326203    -0.23400
H1360       H  0.56059549  0.17917292  0.41836913     0.17800
C1361       C  0.84553431  0.41608931  0.31560681    -0.27400
C1362       C  0.83342388  0.42621794  0.35180697     0.06200
C1363       C  0.85168156  0.45177637  0.38955289     0.25800
C1364       C  0.88168716  0.46803349  0.38948524    -0.11900
C1365       C  0.89395490  0.45908910  0.35179372    -0.25900
C1366       C  0.87561467  0.43246494  0.31533761     0.36600
C1367       C  0.80173835  0.40957948  0.35100125     0.06200
F1368       F  0.82599189  0.46386636  0.84333122    -0.19700
H1369       H  0.88046849  0.48780065  0.85976238     0.16000
F1370       F  0.89396752  0.94361989  0.24597873    -0.23400
H1371       H  0.83168039  0.39596756  0.28688019     0.17800
C1372       C  0.78888944  0.42707411  0.35082277     0.25800
C1373       C  0.75906460  0.41134127  0.35416121    -0.11900
C1374       C  0.74155279  0.37785657  0.35721246    -0.25900
C1375       C  0.75451515  0.36021766  0.35509546     0.36700
C1376       C  0.78429368  0.37606653  0.35208454    -0.27600
F1377       F  0.80517901  0.45930113  0.34695776    -0.19700
H1378       H  0.74974659  0.42545316  0.35442458     0.16000
F1379       F  0.73871523  0.32769455  0.35642807    -0.23400
H1380       H  0.79390053  0.36223383  0.35179804     0.17800
C1381       C  0.58451637  0.41438813  0.32299447    -0.27400
C1382       C  0.60613306  0.42387481  0.36097794     0.06200
C1383       C  0.61223858  0.44816000  0.39996492     0.25800
C1384       C  0.59750722  0.46333871  0.39997639    -0.11900
C1385       C  0.57675932  0.45484084  0.36087712    -0.25900
C1386       C  0.57005907  0.42989928  0.32254325     0.36600
C1387       C  0.62215738  0.40830984  0.35993743     0.06200
F1388       F  0.63232783  0.45707192  0.43812645    -0.19700
H1389       H  0.60303839  0.48252234  0.42989614     0.16000
F1390       F  0.55009119  0.42098306  0.28416370    -0.23400
H1391       H  0.57928184  0.39541478  0.29301850     0.17800
C1392       C  0.60711823  0.37443835  0.35573343     0.25800
C1393       C  0.62234331  0.35991382  0.35664879    -0.11900
C1394       C  0.65289573  0.37878967  0.36185305    -0.25900
C1395       C  0.66797309  0.41277590  0.36471311     0.36700
C1396       C  0.65261561  0.42731799  0.36382407    -0.27600
F1397       F  0.57767816  0.35542151  0.35241497    -0.19700
H1398       H  0.60996571  0.33365334  0.35368203     0.16000
F1399       F  0.68594330  0.42526019  0.78287877    -0.23400
H1400       H  0.66451869  0.45353664  0.36619565     0.17800
C1401       C  0.57401332  0.17671280  0.23031318    -0.27400
C1402       C  0.60176633  0.19680389  0.21393873     0.06200
C1403       C  0.61159725  0.18287995  0.17898958     0.25800
C1404       C  0.59391961  0.14995544  0.16047663    -0.11900
C1405       C  0.56581525  0.13003168  0.17555642    -0.25900
C1406       C  0.55608384  0.14371945  0.21120012     0.36600
C1407       C  0.61959222  0.23248180  0.23017969     0.06200
F1408       F  0.63774953  0.20131458  0.16057050    -0.19700
H1409       H  0.60210703  0.14027648  0.13309384     0.16000
F1410       F  0.52935694  0.12539672  0.22771186    -0.23400
H1411       H  0.56598321  0.18658894  0.25745019     0.17800
C1412       C  0.60716247  0.25047848  0.23019067     0.25800
C1413       C  0.62469695  0.28436058  0.23811463    -0.11900
C1414       C  0.65504119  0.30117458  0.24503423    -0.25900
C1415       C  0.66737316  0.28317113  0.24808054     0.36700
C1416       C  0.64970755  0.24922527  0.24139932    -0.27600
F1417       F  0.57825962  0.23555095  0.21920014    -0.19700
H1418       H  0.61443674  0.29737396  0.23621495     0.16000
F1419       F  0.69648912  0.29810830  0.25606506    -0.23400
H1420       H  0.65974510  0.23598082  0.24332762     0.17800
C1421       C  0.86206463  0.46356058  0.22262311    -0.27400
C1422       C  0.83759768  0.43810358  0.19241992     0.06200
C1423       C  0.84153002  0.42481515  0.14743838     0.25800
C1424       C  0.86938376  0.43687615  0.13301445    -0.11900
C1425       C  0.89393304  0.46242604  0.16297142    -0.25900
C1426       C  0.89005783  0.47549903  0.20834284     0.36600
C1427       C  0.80797483  0.42536618  0.20753435     0.06200
F1428       F  0.81837036  0.40095125  0.11644614    -0.19700
H1429       H  0.87168985  0.42662771  0.09764726     0.16000
F1430       F  0.89654937  0.02277597  0.18042467    -0.23400
H1431       H  0.85945733  0.47402685  0.25747695     0.17800
C1432       C  0.78860214  0.39209698  0.20999412     0.25800
C1433       C  0.76012815  0.37967494  0.22082066    -0.11900
C1434       C  0.74996266  0.39995798  0.22898427    -0.25900
C1435       C  0.76971139  0.43356415  0.22808262     0.36700
C1436       C  0.79851403  0.44609388  0.21771982    -0.27600
F1437       F  0.79717565  0.37145182  0.20168539    -0.19700
H1438       H  0.74591928  0.35382744  0.22178267     0.16000
F1439       F  0.76133690  0.45432460  0.23695795    -0.23400
H1440       H  0.81323250  0.47185920  0.21629810     0.17800
C1441       C  0.59382602  0.42878211  0.15867653    -0.27400
C1442       C  0.61236288  0.44292803  0.20274333     0.06200
C1443       C  0.61489944  0.46987505  0.23097358     0.25800
C1444       C  0.59944667  0.48245779  0.21475281    -0.11900
C1445       C  0.58161992  0.46871376  0.16980094    -0.25900
C1446       C  0.57861381  0.44136610  0.14243240     0.36600
C1447       C  0.62891903  0.42926540  0.21774124     0.06200
F1448       F  0.63209426  0.48386909  0.27428695    -0.19700
H1449       H  0.60212279  0.50347669  0.23645664     0.16000
F1450       F  0.56107836  0.42682789  0.09950144    -0.23400
H1451       H  0.59160684  0.40827111  0.13592551     0.17800
C1452       C  0.61479501  0.39552236  0.21628810     0.25800
C1453       C  0.63051925  0.38220451  0.22503746    -0.11900
C1454       C  0.66092034  0.40188106  0.23478952    -0.25900
C1455       C  0.67509676  0.43582920  0.23798486     0.36700
C1456       C  0.65915682  0.44931005  0.22972768    -0.27600
F1457       F  0.58561908  0.37515569  0.20585293    -0.19700
H1458       H  0.61863022  0.35602526  0.22275591     0.16000
F1459       F  0.70423896  0.45598354  0.24870715    -0.23400
H1460       H  0.67062118  0.47538874  0.23090233     0.17800
C1461       C  0.87265452  0.11657187  0.46139762    -0.27400
C1462       C  0.90313973  0.13445205  0.46663424     0.06200
C1463       C  0.91882179  0.16829565  0.48009265     0.25800
C1464       C  0.90439452  0.18395349  0.48506451    -0.11900
C1465       C  0.87397924  0.16636531  0.47679699    -0.25900
C1466       C  0.85814174  0.13222889  0.46665388     0.36600
C1467       C  0.91847060  0.11803945  0.45553908     0.06200
F1468       F  0.94819848  0.18636487  0.48773667    -0.19700
H1469       H  0.91726235  0.21016234  0.49402526     0.16000
F1470       F  0.82877847  0.11400311  0.45893979    -0.23400
H1471       H  0.86001093  0.09046731  0.45100572     0.17800
C1472       C  0.91033433  0.08950279  0.47527196     0.25800
C1473       C  0.92468332  0.07415622  0.46390770    -0.11900
C1474       C  0.94698153  0.08636844  0.43167622    -0.25900
C1475       C  0.95505032  0.11480298  0.41161779     0.36700
C1476       C  0.94102657  0.13049500  0.42373423    -0.27600
F1477       F  0.88874294  0.07661581  0.50608546    -0.19700
H1478       H  0.91778740  0.05210321  0.47955407     0.16000
F1479       F  0.97606433  0.12713097  0.37959041    -0.23400
H1480       H  0.94733158  0.15205990  0.40711271     0.17800
C1481       C  0.95921975  0.37089224  0.37235753    -0.27400
C1482       C  0.93528960  0.36188963  0.40020844     0.06200
C1483       C  0.92934027  0.38517731  0.41578853     0.25800
C1484       C  0.94671387  0.41658433  0.40333323    -0.11900
C1485       C  0.97053406  0.42571391  0.37500597    -0.25900
C1486       C  0.97666816  0.40243666  0.35966084     0.36600
C1487       C  0.91704915  0.32857053  0.41412651     0.06200
F1488       F  0.90708592  0.37781669  0.44417124    -0.19700
H1489       H  0.94143468  0.43383328  0.41618847     0.16000
F1490       F  0.99956537  0.41007776  0.33284378    -0.23400
H1491       H  0.96427812  0.35336906  0.36013624     0.17800
C1492       C  0.88660598  0.31021103  0.40606294     0.25800
C1493       C  0.86967687  0.27943902  0.42130166    -0.11900
C1494       C  0.88266081  0.26587875  0.44384419    -0.25900
C1495       C  0.91324565  0.28411094  0.45087021     0.36700
C1496       C  0.93010070  0.31512437  0.43646360    -0.27600
F1497       F  0.87321959  0.32160015  0.38206804    -0.19700
H1498       H  0.84632604  0.26589732  0.41423404     0.16000
F1499       F  0.92708091  0.27220929  0.47177243    -0.23400
H1500       H  0.95349211  0.32883008  0.44316299     0.17800
C1501       C  0.74181762  0.16438134  0.43317736    -0.27400
C1502       C  0.72426432  0.13244473  0.44387717     0.06200
C1503       C  0.73740574  0.11846310  0.46442020     0.25800
C1504       C  0.76774517  0.13598007  0.47259512    -0.11900
C1505       C  0.78559534  0.16782945  0.46055861    -0.25900
C1506       C  0.77204918  0.18203929  0.44163471     0.36600
C1507       C  0.69249060  0.11337254  0.43049684     0.06200
F1508       F  0.72097519  0.08738398  0.47448070    -0.19700
H1509       H  0.77725750  0.12430755  0.48746563     0.16000
F1510       F  0.78784833  0.21263406  0.42947565    -0.23400
H1511       H  0.73203120  0.17552013  0.41737199     0.17800
C1512       C  0.67284462  0.10519309  0.46714847     0.25800
C1513       C  0.64286336  0.08651833  0.45377651    -0.11900
C1514       C  0.63198784  0.07630964  0.40345564    -0.25900
C1515       C  0.65183036  0.08550247  0.36676784     0.36700
C1516       C  0.68173589  0.10374693  0.38030700    -0.27600
F1517       F  0.68274232  0.11605712  0.51567978    -0.19700
H1518       H  0.62814037  0.08018101  0.48282624     0.16000
F1519       F  0.64236985  0.07615093  0.31780214    -0.23400
H1520       H  0.69660731  0.11014041  0.35149559     0.17800
C1521       C  0.90708157  0.13639978  0.96985807    -0.27400
C1522       C  0.89548150  0.11094222  0.99886532     0.06200
C1523       C  0.87500729  0.10588893  0.60460192     0.25800
C1524       C  0.86083934  0.12174289  0.60247229    -0.11900
C1525       C  0.86326769  0.13630618  0.97288231    -0.25900
C1526       C  0.89114434  0.14882049  0.95659042     0.36600
C1527       C  0.91404299  0.10115572  0.01907971     0.06200
F1528       F  0.85915703  0.07295596  0.59539584    -0.19700
H1529       H  0.83754262  0.10721540  0.59381164     0.16000
F1530       F  0.90348859  0.17379074  0.92916175    -0.23400
H1531       H  0.92909370  0.14782770  0.95938535     0.17800
C1532       C  0.93176139  0.09571722  0.98903278     0.25800
C1533       C  0.94857741  0.08591306  0.00897565    -0.11900
C1534       C  0.94868207  0.08234844  0.05953462    -0.25900
C1535       C  0.93177211  0.08893120  0.08991684     0.36700
C1536       C  0.91466758  0.09813471  0.06978701    -0.27600
F1537       F  0.95464100  0.13799475  0.56205978    -0.19700
H1538       H  0.97448611  0.10218277  0.57228004     0.16000
F1539       F  0.93094070  0.08546035  0.13887830    -0.23400
H1540       H  0.90192269  0.10309045  0.09412607     0.17800
C1541       C  0.91975103  0.28970734  0.96881213    -0.27400
C1542       C  0.90941288  0.30765704  0.99120626     0.06200
C1543       C  0.88006839  0.29124508  0.00080805     0.25800
C1544       C  0.86172905  0.25755193  0.98966147    -0.11900
C1545       C  0.87218980  0.23925706  0.96923435    -0.25900
C1546       C  0.90135611  0.25580876  0.95773435     0.36600
C1547       C  0.92906403  0.34333024  0.00554638     0.06200
F1548       F  0.86940106  0.30761815  0.02344421    -0.19700
H1549       H  0.83953657  0.24571500  0.99928090     0.16000
F1550       F  0.91224583  0.23935972  0.93634625    -0.23400
H1551       H  0.94215357  0.30195610  0.96022729     0.17800
C1552       C  0.95507889  0.35727682  0.03567793     0.25800
C1553       C  0.97186767  0.39065937  0.05270902    -0.11900
C1554       C  0.96293250  0.41068963  0.04038549    -0.25900
C1555       C  0.93727072  0.39667927  0.00897565     0.36700
C1556       C  0.92074768  0.36348323  0.99167270    -0.27600
F1557       F  0.96355518  0.33844739  0.05060236    -0.19700
H1558       H  0.99146762  0.40065148  0.07678432     0.16000
F1559       F  0.92790492  0.41489302  0.99497194    -0.23400
H1560       H  0.89596280  0.35836747  0.54467307     0.17800
C1561       C  0.68873979  0.11936338  0.07888348    -0.27400
C1562       C  0.69176703  0.10844362  0.03108826     0.06200
C1563       C  0.66685882  0.08644024  0.99884142     0.25800
C1564       C  0.63926543  0.07469504  0.01485823    -0.11900
C1565       C  0.63606294  0.08462726  0.06337180    -0.25900
C1566       C  0.66114561  0.10771418  0.09495401     0.36600
C1567       C  0.72090554  0.11957216  0.01529039     0.06200
F1568       F  0.66926740  0.07543760  0.95252601    -0.19700
H1569       H  0.62035170  0.05686201  0.98983774     0.16000
F1570       F  0.65902458  0.11878496  0.14145480    -0.23400
H1571       H  0.70781535  0.13669279  0.10393254     0.17800
C1572       C  0.73408815  0.14324681  0.98325373     0.25800
C1573       C  0.77109965  0.16723719  0.60341726    -0.11900
C1574       C  0.77704578  0.14148184  0.98680399    -0.25900
C1575       C  0.76339935  0.11707017  0.01794526     0.39100
C1576       C  0.73565201  0.10646651  0.03230561    -0.27600
F1577       F  0.72805645  0.16602523  0.59514723    -0.19700
H1578       H  0.78300910  0.19211869  0.59570720     0.16000
F1579       F  0.77729098  0.10448360  0.03634546    -0.23400
H1580       H  0.72568616  0.08812984  0.05700355     0.17800
C1581       C  0.81751913  0.17027374  0.60863357     0.81000
N1582       N  0.83294320  0.20247523  0.60424969    -0.77300
C1583       C  0.86211364  0.21971975  0.60182552     0.83400
N1584       N  0.87592204  0.20440051  0.60420398    -0.77300
C1585       C  0.86100054  0.17226750  0.60864497     0.83500
N1586       N  0.83173521  0.15532758  0.61065625    -0.79000
C1587       C  0.81286676  0.15926105  0.74357513     0.81000
N1588       N  0.82588961  0.14294785  0.74674321    -0.77300
C1589       C  0.85529572  0.15885262  0.74601175     0.83400
N1590       N  0.87139441  0.19121319  0.74280475    -0.77300
C1591       C  0.85879619  0.20771497  0.73974303     0.83500
N1592       N  0.82963562  0.19150574  0.74013902    -0.79000
C1593       C  0.70527836  0.36084683  0.64174366     0.81000
N1594       N  0.69153241  0.37643722  0.64425179    -0.77300
C1595       C  0.66264463  0.36020961  0.64997214     0.83400
N1596       N  0.64747108  0.32783099  0.65324919    -0.77300
C1597       C  0.66077144  0.31172747  0.65109091     0.83500
N1598       N  0.68966761  0.32849878  0.64526614    -0.79000
C1599       C  0.70234423  0.35802805  0.76807950     0.81000
N1600       N  0.68783563  0.37277631  0.76849209    -0.77300
C1601       C  0.65889777  0.35563816  0.77443270     0.83400
N1602       N  0.64481464  0.32382243  0.78045064    -0.77300
C1603       C  0.65911672  0.30904865  0.78066979     0.83500
N1604       N  0.68775330  0.32632063  0.77445385    -0.79000
C1605       C  0.59935537  0.04581076  0.60681157     0.77200
Tb1606     Tb  0.97309360  0.00837668  0.63328264     1.80700
O1607       O  0.58588664  0.05184028  0.63800212    -0.50800
O1608       O  0.57287672  0.50675175  0.66004400    -0.58200
C1609       C  0.53587870  0.06667887  0.63056245     0.93000
O1610       O  0.97097897  0.05255850  0.66499849    -0.57800
Tb1611     Tb  0.53946429  0.00419409  0.61415919     1.78100
O1612       O  0.93322086  0.47852971  0.57688773    -0.58300
O1613       O  0.50318316  0.47498371  0.61800550    -0.77100
O1614       O  0.54212222  0.05103024  0.59970286    -0.76400
O1615       O  0.52162945  0.99792161  0.53295065    -0.61700
C1616       C  0.98165862  0.46204630  0.58634102     0.92600
O1617       O  0.98627791  0.99056667  0.69787635    -0.73600
C1618       C  0.91765851  0.97615765  0.66890898     0.76100
C1619       C  0.56455809  0.47991725  0.63469223     0.77000
O1620       O  0.58282474  0.02006635  0.57735379    -0.58900
O1621       O  0.54720092  0.47303704  0.59781948    -0.50800
O1622       O  0.48502553  0.00487644  0.53864509    -0.76900
O1623       O  0.52852244  0.01624416  0.69194162    -0.60900
C1624       C  0.50508817  0.00046605  0.71231871     0.90800
C1625       C  0.50294097  0.00178047  0.51387484     0.92100
C1626       C  0.95817337  0.05282794  0.62665816     0.76400
O1627       O  0.94089559  0.99287053  0.69699737    -0.50200
O1628       O  0.95412258  0.03224826  0.59056215    -0.51300
O1629       O  0.97381587  0.47630060  0.56097756    -0.64200
O1630       O  0.51281430  0.05175375  0.65284259    -0.65300
C1631       C  0.60558362  0.05511704  0.82812640     0.77200
Tb1632     Tb  0.98618575  0.02660483  0.87227310     1.80700
O1633       O  0.60095807  0.05764561  0.87326324    -0.50800
O1634       O  0.55054805  0.47433615  0.87357108    -0.58200
C1635       C  0.54948379  0.08225792  0.86557278     0.93000
O1636       O  0.96533536  0.05656026  0.88534516    -0.57800
Tb1637     Tb  0.55042281  0.01850710  0.86383451     1.78100
O1638       O  0.93593095  0.48218073  0.78689999    -0.58300
O1639       O  0.49320197  0.46350333  0.80813685    -0.77100
O1640       O  0.55969428  0.06962316  0.88906520    -0.76400
O1641       O  0.53250641  0.02141332  0.78843888    -0.61700
C1642       C  0.97607183  0.45060691  0.82203397     0.92600
O1643       O  0.01078349  0.04805885  0.95228968    -0.73600
C1644       C  0.92685358  0.98359524  0.87618252     0.76100
C1645       C  0.55122771  0.46259554  0.83048115     0.77000
O1646       O  0.58258125  0.03523642  0.80038136    -0.58900
O1647       O  0.54286206  0.47171546  0.79658741    -0.50800
O1648       O  0.48470307  0.99047380  0.78989187    -0.76900
O1649       O  0.53520755  0.02163401  0.94288186    -0.60900
C1650       C  0.52164823  0.03297129  0.96359220     0.90800
C1651       C  0.50724171  0.00360929  0.76639643     0.92100
C1652       C  0.96406235  0.06102970  0.84073326     0.76400
O1653       O  0.94283657  0.00759737  0.90909857    -0.50200
O1654       O  0.97576620  0.05059142  0.81238441    -0.51300
O1655       O  0.96789729  0.46331503  0.85474575    -0.64200
O1656       O  0.52352759  0.06642945  0.84655246    -0.65300
C1657       C  0.64439595  0.23021906  0.81583221    -0.27400
C1658       C  0.61400765  0.21093237  0.81283628     0.06200
C1659       C  0.59860039  0.22361898  0.79687190     0.25800
C1660       C  0.61345475  0.25530501  0.78563311    -0.11900
C1661       C  0.64388258  0.27489983  0.78965696    -0.25900
C1662       C  0.65928513  0.26180642  0.80411692     0.36600
C1663       C  0.59862478  0.17828750  0.82856920     0.06200
F1664       F  0.56916025  0.20541717  0.79201521    -0.19700
H1665       H  0.60101292  0.26453180  0.77385548     0.16000
F1666       F  0.68763196  0.27875374  0.40511923    -0.23400
H1667       H  0.65097219  0.21702235  0.40453413     0.17800
C1668       C  0.60642828  0.15647224  0.81328020     0.25800
C1669       C  0.59147797  0.12571487  0.82846156    -0.11900
C1670       C  0.56824140  0.11616143  0.85790011    -0.25900
C1671       C  0.56049310  0.13779647  0.87339849     0.36700
C1672       C  0.57597340  0.16886378  0.85964375    -0.27600
F1673       F  0.62749767  0.16424052  0.78186023    -0.19700
H1674       H  0.59700098  0.10876583  0.81509542     0.16000
F1675       F  0.53769419  0.12864605  0.90124252    -0.23400
H1676       H  0.57004136  0.18546072  0.87291281     0.17800
C1677       C  0.84251761  0.42091972  0.74578049    -0.27400
C1678       C  0.82665676  0.43042340  0.77352009     0.06200
C1679       C  0.84079334  0.45496524  0.81439967     0.25800
C1680       C  0.87005556  0.46919568  0.82768548    -0.11900
C1681       C  0.88578431  0.45951591  0.80027893    -0.25900
C1682       C  0.87207786  0.43575397  0.75852694     0.36600
C1683       C  0.79485353  0.41197907  0.76412909     0.06200
F1684       F  0.84045501  0.46078121  0.42672570    -0.19700
H1685       H  0.89533488  0.48811996  0.41842347     0.16000
F1686       F  0.88996762  0.92692205  0.80484605    -0.23400
H1687       H  0.83188309  0.40169967  0.71463239     0.17800
C1688       C  0.78041357  0.42767981  0.76180336     0.25800
C1689       C  0.75021137  0.40994435  0.76161786    -0.11900
C1690       C  0.73397466  0.37627525  0.76318241    -0.25900
C1691       C  0.74856199  0.36043034  0.76183770     0.36700
C1692       C  0.77862181  0.37822593  0.76259593    -0.27600
F1693       F  0.79554956  0.46019725  0.76062100    -0.19700
H1694       H  0.73964723  0.42272277  0.76128872     0.16000
F1695       F  0.73411716  0.32779882  0.76086441    -0.23400
H1696       H  0.78934478  0.36565789  0.76405233     0.17800
C1697       C  0.57198172  0.40834752  0.76456122    -0.27400
C1698       C  0.59363469  0.41349576  0.79898558     0.06200
C1699       C  0.59931346  0.43248352  0.84503657     0.25800
C1700       C  0.58406528  0.44672528  0.85594339    -0.11900
C1701       C  0.56344329  0.44302731  0.82066209    -0.25900
C1702       C  0.55737601  0.42353665  0.77474405     0.36600
C1703       C  0.61016421  0.39887943  0.78749492     0.06200
F1704       F  0.61960842  0.43717748  0.87954088    -0.19700
H1705       H  0.58929926  0.46183214  0.89135173     0.16000
F1706       F  0.53766114  0.41944455  0.73958355    -0.23400
H1707       H  0.56695595  0.39327255  0.72925722     0.17800
C1708       C  0.59598121  0.36506161  0.77946069     0.25800
C1709       C  0.61202634  0.35138672  0.77414554    -0.11900
C1710       C  0.64254569  0.37111083  0.77615631    -0.25900
C1711       C  0.65663896  0.40511323  0.78171875     0.36700
C1712       C  0.64049677  0.41875093  0.78768744    -0.27600
F1713       F  0.56667784  0.34524715  0.77884199    -0.19700
H1714       H  0.60039018  0.32512556  0.76902882     0.16000
F1715       F  0.69739226  0.43200999  0.36893576    -0.23400
H1716       H  0.65172947  0.44498082  0.79330525     0.17800
C1717       C  0.57127597  0.15551789  0.68463572    -0.27400
C1718       C  0.59220050  0.17165332  0.65105703     0.06200
C1719       C  0.59529356  0.15296710  0.61240560     0.25800
C1720       C  0.57720991  0.11903054  0.60662656    -0.11900
C1721       C  0.55559399  0.10279323  0.63920299    -0.25900
C1722       C  0.55328806  0.12148224  0.67911005     0.36600
C1723       C  0.61001889  0.20779245  0.65513695     0.06200
F1724       F  0.61502019  0.16749053  0.57883887    -0.19700
H1725       H  0.57980759  0.10548956  0.57584532     0.16000
F1726       F  0.53395192  0.10700226  0.71316930    -0.23400
H1727       H  0.56884415  0.16925825  0.71512137     0.17800
C1728       C  0.59683908  0.22503619  0.65765948     0.25800
C1729       C  0.61350076  0.25871596  0.65725385    -0.11900
C1730       C  0.64371990  0.27610681  0.65427834    -0.25900
C1731       C  0.65699583  0.25884968  0.65348780     0.36700
C1732       C  0.64026793  0.22516068  0.65389443    -0.27600
F1733       F  0.56764118  0.20915968  0.65841567    -0.19700
H1734       H  0.60251766  0.27105372  0.65838946     0.16000
F1735       F  0.68608516  0.27422519  0.65168683    -0.23400
H1736       H  0.65097470  0.21250566  0.65274036     0.17800
C1737       C  0.84833359  0.46097039  0.65398265    -0.27400
C1738       C  0.82969199  0.43088299  0.62425901     0.06200
C1739       C  0.84176849  0.41895167  0.59072224     0.25800
C1740       C  0.87178652  0.43671597  0.58735951    -0.11900
C1741       C  0.89041244  0.46677470  0.61710587    -0.25900
C1742       C  0.87835535  0.47870410  0.65072110     0.36600
C1743       C  0.79777404  0.41263651  0.62786888     0.06200
F1744       F  0.82450034  0.39079429  0.55961300    -0.19700
H1745       H  0.88038138  0.42720720  0.56065327     0.16000
F1746       F  0.90659113  0.99677649  0.76462648    -0.23400
H1747       H  0.83961761  0.47064578  0.68017006     0.17800
C1748       C  0.78121257  0.37939120  0.63295683     0.25800
C1749       C  0.75128334  0.36279414  0.63676690    -0.11900
C1750       C  0.73708008  0.37889781  0.63604503    -0.25900
C1751       C  0.75379300  0.41225788  0.63089302     0.36700
C1752       C  0.78370596  0.42878244  0.62699726    -0.27600
F1753       F  0.79405473  0.36310100  0.63607726    -0.19700
H1754       H  0.73936422  0.33736696  0.64122556     0.16000
F1755       F  0.74147982  0.42919782  0.62962153    -0.23400
H1756       H  0.79591614  0.45430742  0.62293804     0.17800
C1757       C  0.57709940  0.41227300  0.62214089    -0.27400
C1758       C  0.60288975  0.42621735  0.65300401     0.06200
C1759       C  0.61421863  0.45678948  0.68138862     0.25800
C1760       C  0.60077406  0.47333732  0.67712381    -0.11900
C1761       C  0.57575649  0.45992309  0.64465821    -0.25900
C1762       C  0.56349457  0.42867900  0.61835376     0.36600
C1763       C  0.61815948  0.40927884  0.65420300     0.06200
F1764       F  0.63826164  0.47076790  0.71347720    -0.19700
H1765       H  0.61052479  0.49720825  0.69820149     0.16000
F1766       F  0.53867444  0.41419390  0.58806960    -0.23400
H1767       H  0.56783737  0.38898450  0.59947171     0.17800
C1768       C  0.60273170  0.37539887  0.65419304     0.25800
C1769       C  0.61730265  0.35981521  0.65278593    -0.11900
C1770       C  0.64766392  0.37747319  0.65219601    -0.25900
C1771       C  0.66316901  0.41149522  0.65370348     0.36700
C1772       C  0.64852226  0.42695046  0.65394470    -0.27600
F1773       F  0.57357139  0.35724242  0.65666504    -0.19700
H1774       H  0.60463343  0.33372745  0.65252305     0.16000
F1775       F  0.69254010  0.43013150  0.65522195    -0.23400
H1776       H  0.66111051  0.45292644  0.65313586     0.17800
C1777       C  0.87057284  0.09469449  0.76495315    -0.27400
C1778       C  0.90089138  0.11395395  0.77587464     0.06200
C1779       C  0.91595352  0.14752537  0.77401722     0.25800
C1780       C  0.90099790  0.16142506  0.76265956    -0.11900
C1781       C  0.87053434  0.14247641  0.75355696    -0.25900
C1782       C  0.85548564  0.10869983  0.75417033     0.36600
C1783       C  0.91662006  0.09932608  0.79083175     0.06200
F1784       F  0.94506759  0.16731808  0.78560237    -0.19700
H1785       H  0.91345349  0.18743878  0.76258979     0.16000
F1786       F  0.82622010  0.08912632  0.74481343    -0.23400
H1787       H  0.85846172  0.06867305  0.76500848     0.17800
C1788       C  0.90615700  0.07770837  0.82654204     0.25800
C1789       C  0.92182458  0.06546015  0.84222756    -0.11900
C1790       C  0.94826575  0.07456672  0.82312436    -0.25900
C1791       C  0.95841088  0.09529158  0.78641205     0.36700
C1792       C  0.94282937  0.10774451  0.77078292    -0.27600
F1793       F  0.88136598  0.06933993  0.84781781    -0.19700
H1794       H  0.91327901  0.04879402  0.86965653     0.16000
F1795       F  0.98367260  0.10410193  0.76657822    -0.23400
H1796       H  0.95120860  0.12388683  0.74266827     0.17800
C1797       C  0.95051422  0.36759120  0.75403753    -0.27400
C1798       C  0.92408788  0.34752254  0.77392587     0.06200
C1799       C  0.91452190  0.36137632  0.80948913     0.25800
C1800       C  0.93137741  0.39492108  0.82494415    -0.11900
C1801       C  0.95799534  0.41514928  0.80508578    -0.25900
C1802       C  0.96725424  0.40104154  0.76894544     0.36600
C1803       C  0.90788459  0.31196587  0.76016303     0.06200
F1804       F  0.88953324  0.34231886  0.83083914    -0.19700
H1805       H  0.92374832  0.40495992  0.85282209     0.16000
F1806       F  0.99268181  0.41931511  0.74828692    -0.23400
H1807       H  0.95834375  0.35717684  0.72735711     0.17800
C1808       C  0.87868891  0.29359132  0.74123794     0.25800
C1809       C  0.86325022  0.25972408  0.73230896    -0.11900
C1810       C  0.87660426  0.24359557  0.74224591    -0.25900
C1811       C  0.90632950  0.26232766  0.75890747     0.36700
C1812       C  0.92170521  0.29614149  0.76752639    -0.27600
F1813       F  0.86509661  0.30837788  0.73176921    -0.19700
H1814       H  0.84055667  0.24606090  0.71860232     0.16000
F1815       F  0.92030816  0.24817780  0.76962687    -0.23400
H1816       H  0.94430478  0.31003601  0.78198154     0.17800
C1817       C  0.73981941  0.14741107  0.76146253    -0.27400
C1818       C  0.72235794  0.11471491  0.76837044     0.06200
C1819       C  0.73405593  0.09594731  0.76377383     0.25800
C1820       C  0.76322131  0.11018823  0.75437894    -0.11900
C1821       C  0.78118375  0.14334631  0.74892122    -0.25900
C1822       C  0.76875228  0.16161576  0.75142173     0.36600
C1823       C  0.69235461  0.10079766  0.78233504     0.06200
F1824       F  0.71756498  0.06416300  0.77033275    -0.19700
H1825       H  0.77185895  0.09534731  0.75235918     0.16000
F1826       F  0.78452681  0.19351689  0.74545238    -0.23400
H1827       H  0.73102804  0.16212094  0.76436963     0.17800
C1828       C  0.68736846  0.11135816  0.82876052     0.25800
C1829       C  0.65905493  0.09698143  0.84289520    -0.11900
C1830       C  0.63513569  0.07245456  0.81047707    -0.25900
C1831       C  0.64017388  0.06334704  0.76278398     0.36700
C1832       C  0.66856514  0.07696223  0.74937037    -0.27600
F1833       F  0.70997409  0.13490168  0.86098005    -0.19700
H1834       H  0.65586615  0.10478013  0.87957811     0.16000
F1835       F  0.61779850  0.04089253  0.72936624    -0.23400
H1836       H  0.67202427  0.06895001  0.71309154     0.17800
C1837       C  0.92099114  0.15784810  0.62338708    -0.27400
C1838       C  0.90527599  0.12385001  0.61526880     0.06200
C1839       C  0.86670667  0.09659889  0.01148614     0.25800
C1840       C  0.85084521  0.10922371  0.99866025    -0.11900
C1841       C  0.87647212  0.15583482  0.61092853    -0.25900
C1842       C  0.90685843  0.17376587  0.62142333     0.36600
C1843       C  0.92029179  0.10714182  0.61957369     0.06200
F1844       F  0.85416104  0.07087860  0.03741772    -0.19700
H1845       H  0.82932547  0.09872883  0.01112968     0.16000
F1846       F  0.92298798  0.20666693  0.63110833    -0.23400
H1847       H  0.94425618  0.17212828  0.63238737     0.17800
C1848       C  0.94418558  0.11459219  0.59230406     0.25800
C1849       C  0.95679047  0.09700723  0.59468509    -0.11900
C1850       C  0.94650229  0.07283528  0.62581089    -0.25900
C1851       C  0.92357967  0.06638380  0.65465438     0.36700
C1852       C  0.91036566  0.08310533  0.65102275    -0.27600
F1853       F  0.93247946  0.09938901  0.94031191    -0.19700
H1854       H  0.96140817  0.08096682  0.98486283     0.16000
F1855       F  0.91338968  0.04316176  0.68523106    -0.23400
H1856       H  0.89236279  0.07733142  0.67291515     0.17800
C1857       C  0.92278817  0.30459869  0.57922851    -0.27400
C1858       C  0.91053846  0.32240078  0.59034792     0.06200
C1859       C  0.88181628  0.30594846  0.60376562     0.25800
C1860       C  0.86607369  0.27254796  0.60672674    -0.11900
C1861       C  0.87868136  0.25491281  0.59690095    -0.25900
C1862       C  0.90725883  0.27139932  0.58270443     0.36600
C1863       C  0.92832392  0.35813522  0.58917900     0.06200
F1864       F  0.86930112  0.32230324  0.61578562    -0.19700
H1865       H  0.84418293  0.26066272  0.61790687     0.16000
F1866       F  0.92026937  0.25552056  0.57146635    -0.23400
H1867       H  0.94459305  0.31648738  0.56761026     0.17800
C1868       C  0.95665576  0.37765275  0.61264015     0.25800
C1869       C  0.97356340  0.41109217  0.61121328    -0.11900
C1870       C  0.96295173  0.42613509  0.58591732    -0.25900
C1871       C  0.93465478  0.40653989  0.56184481     0.36700
C1872       C  0.91753323  0.37294638  0.56381100    -0.27600
F1873       F  0.96802437  0.36447288  0.63754491    -0.19700
H1874       H  0.99520396  0.42523643  0.63009129     0.16000
F1875       F  0.92345313  0.41961894  0.53629612    -0.23400
H1876       H  0.90102535  0.35332111  0.96782999     0.17800
C1877       C  0.67896387  0.11314689  0.63809976    -0.27400
C1878       C  0.69241358  0.09961395  0.61245940     0.06200
C1879       C  0.67490704  0.06877579  0.58399274     0.25800
C1880       C  0.64472178  0.05203446  0.58115814    -0.11900
C1881       C  0.63128586  0.06541780  0.60698289    -0.25900
C1882       C  0.64868037  0.09625893  0.63547508     0.36600
C1883       C  0.72455516  0.11809321  0.61373305     0.06200
F1884       F  0.68694746  0.05517755  0.55756255    -0.19700
H1885       H  0.63182449  0.02828612  0.55923587     0.16000
F1886       F  0.63649611  0.11009292  0.66081642    -0.23400
H1887       H  0.69192471  0.13667026  0.66063296     0.17800
C1888       C  0.74104867  0.15059613  0.60463923     0.25800
C1889       C  0.76193883  0.15420048  0.96940676    -0.11900
C1890       C  0.78551582  0.15194109  0.61094236    -0.25900
C1891       C  0.76894636  0.11939688  0.62044198     0.39100
C1892       C  0.73888134  0.10288196  0.62215436    -0.27600
F1893       F  0.72029233  0.15635820  0.96646877    -0.19700
H1894       H  0.77187213  0.17298294  0.94544748     0.16000
F1895       F  0.78159086  0.10338575  0.62835128    -0.23400
H1896       H  0.72671416  0.07803227  0.63007671     0.17800
C1897       C  0.82412324  0.67708919  0.06685937     0.81000
N1898       N  0.84130796  0.70989009  0.06777402    -0.77300
C1899       C  0.87076410  0.72607635  0.07000523     0.83400
N1900       N  0.88297451  0.70888882  0.07137109    -0.77300
C1901       C  0.86610426  0.67603139  0.07012202     0.83500
N1902       N  0.83679739  0.66046777  0.06780364    -0.79000
C1903       C  0.81913440  0.66537250  0.29451071     0.81000
N1904       N  0.83358278  0.65055332  0.29332473    -0.77300
C1905       C  0.86312604  0.66874542  0.29718146     0.83400
N1906       N  0.87795877  0.70160059  0.30313698    -0.77300
C1907       C  0.86381111  0.71657607  0.30536702     0.83500
N1908       N  0.83443459  0.69826348  0.30087778    -0.79000
C1909       C  0.70779434  0.87010918  0.14651736     0.81000
N1910       N  0.69452188  0.88620023  0.14953880    -0.77300
C1911       C  0.66560285  0.87028245  0.15434133     0.83400
N1912       N  0.64986708  0.83778068  0.15605892    -0.77300
C1913       C  0.66256523  0.82108808  0.15342736     0.83500
N1914       N  0.69162402  0.83748936  0.14862647    -0.79000
C1915       C  0.70589279  0.86461526  0.27337359     0.81000
N1916       N  0.69032008  0.87804967  0.27199466    -0.77300
C1917       C  0.66118242  0.85980329  0.27609698     0.83400
N1918       N  0.64785137  0.82802413  0.28198470    -0.77300
C1919       C  0.66316089  0.81443124  0.28398314     0.83500
N1920       N  0.69205456  0.83288113  0.27955134    -0.79000
C1921       C  0.60639024  0.55764997  0.08590004     0.77200
Tb1922     Tb  0.97605256  0.50885935  0.10128689     1.80700
O1923       O  0.59477186  0.56528375  0.11899648    -0.50800
O1924       O  0.57706234  0.01669210  0.16369100    -0.58200
C1925       C  0.53633973  0.57473365  0.11847846     0.93000
O1926       O  0.97882922  0.55794912  0.10165885    -0.57800
Tb1927     Tb  0.54736010  0.51670463  0.10477338     1.78100
O1928       O  0.93906721  0.98804206  0.10378139    -0.58300
O1929       O  0.50849087  0.98482081  0.13149281    -0.77100
O1930       O  0.54578431  0.56120753  0.09031511    -0.76400
O1931       O  0.52595357  0.50593480  0.02412959    -0.61700
C1932       C  0.98755377  0.97253616  0.11087869     0.92600
O1933       O  0.98669707  0.49013098  0.16799534    -0.73600
C1934       C  0.92281881  0.47697239  0.14372498     0.76100
C1935       C  0.57043917  0.99181543  0.13424789     0.77000
O1936       O  0.58831620  0.53065977  0.06045040    -0.58900
O1937       O  0.55388637  0.98646499  0.09701583    -0.50800
O1938       O  0.48450888  0.50399684  0.02724479    -0.76900
O1939       O  0.53367091  0.52683493  0.18184232    -0.60900
C1940       C  0.50998912  0.50939932  0.20126559     0.90800
C1941       C  0.50400403  0.50360308  0.00361078     0.92100
C1942       C  0.95486651  0.54588948  0.07695463     0.76400
O1943       O  0.94646482  0.49905199  0.16803953    -0.50200
O1944       O  0.94266409  0.51622231  0.06098513    -0.51300
O1945       O  0.97967321  0.98753610  0.08761928    -0.64200
O1946       O  0.51321664  0.55793723  0.14011945    -0.65300
C1947       C  0.60606116  0.55358373  0.32852238     0.77200
Tb1948     Tb  0.98541060  0.52054987  0.34398835     1.80700
O1949       O  0.59829320  0.55074138  0.37216202    -0.50800
O1950       O  0.54958897  0.97360722  0.38041872    -0.58200
C1951       C  0.55237178  0.58478594  0.36214657     0.93000
O1952       O  0.97782659  0.56148210  0.36903128    -0.57800
Tb1953     Tb  0.54829044  0.51718879  0.35117535     1.78100
O1954       O  0.94127227  0.99985386  0.30847865    -0.58300
O1955       O  0.49670087  0.96786456  0.32026116    -0.77100
O1956       O  0.56186552  0.56985018  0.38089645    -0.76400
O1957       O  0.53544935  0.52883099  0.27922047    -0.61700
C1958       C  0.97450134  0.96074610  0.35847354     0.92600
O1959       O  0.01049594  0.54343875  0.42299615    -0.73600
C1960       C  0.92563868  0.47901421  0.34962870     0.76100
C1961       C  0.55533291  0.96800646  0.33724988     0.77000
O1962       O  0.58495218  0.53911670  0.29553924    -0.58900
O1963       O  0.55252100  0.98346806  0.30647993    -0.50800
O1964       O  0.48767493  0.49805034  0.27713654    -0.76900
O1965       O  0.53326562  0.51651873  0.43079504    -0.60900
C1966       C  0.52163790  0.52938892  0.45380745     0.90800
C1967       C  0.51085544  0.51182980  0.25524208     0.92100
C1968       C  0.97065716  0.56396712  0.32634647     0.76400
O1969       O  0.94259205  0.50197613  0.38303694    -0.50200
O1970       O  0.97164837  0.54551309  0.29220344    -0.51300
O1971       O  0.96590924  0.97464746  0.38765145    -0.64200
O1972       O  0.52636834  0.57047838  0.34397384    -0.65300
C1973       C  0.65003937  0.73743920  0.32558313    -0.27400
C1974       C  0.61969874  0.71635605  0.31790462     0.06200
C1975       C  0.60408505  0.72752059  0.29682529     0.25800
C1976       C  0.61844586  0.75915648  0.28531714    -0.11900
C1977       C  0.64869188  0.78035719  0.29360621    -0.25900
C1978       C  0.66447296  0.76900401  0.31334567     0.36600
C1979       C  0.60430018  0.68347463  0.33387532     0.06200
F1980       F  0.57481838  0.70802919  0.28761523    -0.19700
H1981       H  0.60570104  0.76712257  0.27007158     0.16000
F1982       F  0.68469859  0.77185850  0.90419020    -0.23400
H1983       H  0.64645034  0.71003782  0.89856233     0.17800
C1984       C  0.61453145  0.66325251  0.32521549     0.25800
C1985       C  0.59859815  0.63174792  0.33821249    -0.11900
C1986       C  0.57198470  0.61969399  0.35876377    -0.25900
C1987       C  0.56230872  0.64014712  0.36896533     0.36700
C1988       C  0.57862982  0.67186049  0.35766186    -0.27600
F1989       F  0.63895241  0.67309440  0.30169846    -0.19700
H1990       H  0.60611006  0.61609083  0.32929551     0.16000
F1991       F  0.53670317  0.62920894  0.38901783    -0.23400
H1992       H  0.57080193  0.68717720  0.36681540     0.17800
C1993       C  0.84812247  0.93595647  0.25544386    -0.27400
C1994       C  0.83076196  0.94430151  0.28065218     0.06200
C1995       C  0.84356312  0.96997294  0.31998668     0.25800
C1996       C  0.87285173  0.98589271  0.33526167    -0.11900
C1997       C  0.88995964  0.97689006  0.31118005    -0.25900
C1998       C  0.87777724  0.95264485  0.26990361     0.36600
C1999       C  0.79888019  0.92343869  0.27141194     0.06200
F2000       F  0.83946126  0.96377467  0.94555714    -0.19700
H2001       H  0.89463428  0.99287769  0.93997737     0.16000
F2002       F  0.88665228  0.42267877  0.27891124    -0.23400
H2003       H  0.83853377  0.91589931  0.22561595     0.17800
C2004       C  0.78268805  0.93647936  0.26273881     0.25800
C2005       C  0.75242791  0.91715460  0.26242833    -0.11900
C2006       C  0.73783398  0.88447573  0.27052434    -0.25900
C2007       C  0.75429708  0.87128991  0.27704770     0.36700
C2008       C  0.78440116  0.89064391  0.27740457    -0.27600
F2009       F  0.79620585  0.96799148  0.25528267    -0.19700
H2010       H  0.74048538  0.92791504  0.25633330     0.16000
F2011       F  0.74168143  0.83997026  0.28473839    -0.23400
H2012       H  0.79657984  0.88027989  0.28454045     0.17800
C2013       C  0.57562294  0.91503243  0.26492731    -0.27400
C2014       C  0.59345474  0.91458615  0.30131333     0.06200
C2015       C  0.59623242  0.92896589  0.35015764     0.25800
C2016       C  0.58241721  0.94479861  0.36193094    -0.11900
C2017       C  0.56620086  0.94728045  0.32495112    -0.25900
C2018       C  0.56254566  0.93188647  0.27627823     0.36600
C2019       C  0.61038213  0.90062838  0.28848680     0.06200
F2020       F  0.61266807  0.92801156  0.38635045    -0.19700
H2021       H  0.58548847  0.95640775  0.39963237     0.16000
F2022       F  0.54664413  0.93339009  0.23973313    -0.23400
H2023       H  0.57272445  0.90337058  0.22739272     0.17800
C2024       C  0.59677106  0.86698123  0.27743207     0.25800
C2025       C  0.61345935  0.85401057  0.27191424    -0.11900
C2026       C  0.64401960  0.87436714  0.27693727    -0.25900
C2027       C  0.65750166  0.90828214  0.28532170     0.36700
C2028       C  0.64074390  0.92112447  0.29132094    -0.27600
F2029       F  0.56742301  0.84663298  0.27434330    -0.19700
H2030       H  0.60235064  0.82783712  0.26462911     0.16000
F2031       F  0.70017633  0.92988696  0.87287466    -0.23400
H2032       H  0.65152859  0.94723561  0.29943511     0.17800
C2033       C  0.56799210  0.66265222  0.17430879    -0.27400
C2034       C  0.58792545  0.68003689  0.13995366     0.06200
C2035       C  0.58926357  0.66242065  0.09731681     0.25800
C2036       C  0.57218454  0.62841496  0.09051217    -0.11900
C2037       C  0.55287760  0.61093010  0.12553577    -0.25900
C2038       C  0.55053433  0.62849747  0.16718371     0.36600
C2039       C  0.60745450  0.71633990  0.14827263     0.06200
F2040       F  0.60679006  0.67810929  0.06157686    -0.19700
H2041       H  0.57407174  0.61574208  0.05757006     0.16000
F2042       F  0.53213210  0.61281095  0.20193308    -0.23400
H2043       H  0.56630088  0.67535472  0.20694314     0.17800
C2044       C  0.59661774  0.73557176  0.16037953     0.25800
C2045       C  0.61481965  0.76947500  0.16312091    -0.11900
C2046       C  0.64433917  0.78518446  0.15428764    -0.25900
C2047       C  0.65546872  0.76596683  0.14468958     0.36700
C2048       C  0.63720669  0.73206073  0.14178017    -0.27600
F2049       F  0.56817864  0.72163745  0.16767498    -0.19700
H2050       H  0.60553332  0.78338390  0.17152174     0.16000
F2051       F  0.68376976  0.77962359  0.13657466    -0.23400
H2052       H  0.64630305  0.71793298  0.13362540     0.17800
C2053       C  0.85047550  0.97346384  0.15870721    -0.27400
C2054       C  0.83298586  0.94113504  0.13529586     0.06200
C2055       C  0.84663770  0.92728344  0.11108719     0.25800
C2056       C  0.87693065  0.94505951  0.11162163    -0.11900
C2057       C  0.89432510  0.97714321  0.13560612    -0.25900
C2058       C  0.88073109  0.99134049  0.15876331     0.36600
C2059       C  0.80073706  0.92236310  0.13638465     0.06200
F2060       F  0.83074378  0.89697267  0.08521686    -0.19700
H2061       H  0.88678313  0.93382685  0.09255463     0.16000
F2062       F  0.91315852  0.50029454  0.23827572    -0.23400
H2063       H  0.84071770  0.98486647  0.17755184     0.17800
C2064       C  0.78450400  0.89008014  0.14696624     0.25800
C2065       C  0.75441258  0.87318573  0.14902545    -0.11900
C2066       C  0.73967284  0.88809958  0.14165921    -0.25900
C2067       C  0.75595008  0.92049052  0.13120589     0.36700
C2068       C  0.78599072  0.93720038  0.12843909    -0.27600
F2069       F  0.79776157  0.87516785  0.15777051    -0.19700
H2070       H  0.74279465  0.84863686  0.15799597     0.16000
F2071       F  0.74304078  0.93625501  0.12351225    -0.23400
H2072       H  0.79776389  0.96188644  0.11999825     0.17800
C2073       C  0.58646143  0.92717812  0.11347784    -0.27400
C2074       C  0.60792474  0.93754576  0.15237042     0.06200
C2075       C  0.61584139  0.96498147  0.18650723     0.25800
C2076       C  0.60292091  0.98188971  0.18111873    -0.11900
C2077       C  0.58196216  0.97194453  0.14160367    -0.25900
C2078       C  0.57349849  0.94406100  0.10811485     0.36600
C2079       C  0.62249075  0.92025406  0.15606965     0.06200
F2080       F  0.63564846  0.97510924  0.22571080    -0.19700
H2081       H  0.60963364  0.00309653  0.20765216     0.16000
F2082       F  0.55312084  0.93338736  0.06963115    -0.23400
H2083       H  0.58021244  0.90639559  0.08630923     0.17800
C2084       C  0.60642418  0.88612145  0.15056144     0.25800
C2085       C  0.62059064  0.87020406  0.15059703    -0.11900
C2086       C  0.65105621  0.88784565  0.15650545    -0.25900
C2087       C  0.66705805  0.92206003  0.16407339     0.36700
C2088       C  0.65286812  0.93793951  0.16339482    -0.27600
F2089       F  0.57698565  0.86807578  0.14560535    -0.19700
H2090       H  0.60755371  0.84389266  0.14561721     0.16000
F2091       F  0.69638493  0.94034736  0.17263131    -0.23400
H2092       H  0.66579131  0.96423962  0.16764932     0.17800
C2093       C  0.88660918  0.61265416  0.31861240    -0.27400
C2094       C  0.91403049  0.62879449  0.30010879     0.06200
C2095       C  0.92396727  0.65702084  0.27840667     0.25800
C2096       C  0.90689193  0.66941373  0.27657285    -0.11900
C2097       C  0.87954076  0.65358157  0.29572572    -0.25900
C2098       C  0.86930798  0.62473854  0.31613494     0.36600
C2099       C  0.93240122  0.61648312  0.30558667     0.06200
F2100       F  0.95056635  0.67319457  0.26080830    -0.19700
H2101       H  0.91520892  0.69166715  0.26060747     0.16000
F2102       F  0.84330106  0.60910898  0.33580078    -0.23400
H2103       H  0.87879664  0.59084792  0.33563201     0.17800
C2104       C  0.94281548  0.61698054  0.35314167     0.25800
C2105       C  0.95675673  0.60132466  0.35924798    -0.11900
C2106       C  0.96042136  0.58484719  0.31799491    -0.25900
C2107       C  0.95176239  0.58631950  0.26990973     0.36700
C2108       C  0.93780217  0.60209665  0.26388687    -0.27600
F2109       F  0.93872725  0.63186563  0.39376092    -0.19700
H2110       H  0.96359388  0.60096783  0.39650627     0.16000
F2111       F  0.95572565  0.57154421  0.22895868    -0.23400
H2112       H  0.93011956  0.60190747  0.22696179     0.17800
C2113       C  0.95091158  0.87477933  0.31101581    -0.27400
C2114       C  0.92601776  0.85648746  0.33611512     0.06200
C2115       C  0.91721329  0.87266012  0.36868996     0.25800
C2116       C  0.93303484  0.90652045  0.37565927    -0.11900
C2117       C  0.95796140  0.92489447  0.35043769    -0.25900
C2118       C  0.96678797  0.90859573  0.31801386     0.36600
C2119       C  0.90989141  0.82067218  0.32859254     0.06200
F2120       F  0.89372718  0.85583050  0.39465963    -0.19700
H2121       H  0.92581004  0.91832182  0.40110843     0.16000
F2122       F  0.99068868  0.92512955  0.29286424    -0.23400
H2123       H  0.95798561  0.86281683  0.28553471     0.17800
C2124       C  0.87957802  0.80107763  0.31875597     0.25800
C2125       C  0.86485966  0.76735610  0.31167922    -0.11900
C2126       C  0.88003429  0.75243459  0.31300642    -0.25900
C2127       C  0.91051696  0.77218388  0.32173001     0.36700
C2128       C  0.92512411  0.80588963  0.32987128    -0.27600
F2129       F  0.86422594  0.81443831  0.31414201    -0.19700
H2130       H  0.84145308  0.75293958  0.30436218     0.16000
F2131       F  0.92636381  0.75919172  0.32303715    -0.23400
H2132       H  0.94852562  0.82056031  0.33750452     0.17800
C2133       C  0.74229773  0.64312367  0.27422792    -0.27400
C2134       C  0.72647459  0.61342621  0.29305598     0.06200
C2135       C  0.74088806  0.59939091  0.30808128     0.25800
C2136       C  0.77093231  0.61572259  0.30657686    -0.11900
C2137       C  0.78706790  0.64638182  0.29042893    -0.25900
C2138       C  0.77232911  0.65960243  0.27307290     0.36600
C2139       C  0.69557486  0.59874003  0.30117193     0.06200
F2140       F  0.72594116  0.57019943  0.32523562    -0.19700
H2141       H  0.78169189  0.60496423  0.31990770     0.16000
F2142       F  0.78693852  0.68871275  0.25563996    -0.23400
H2143       H  0.73153627  0.65422259  0.26234797     0.17800
C2144       C  0.68651513  0.59299037  0.34912317     0.25800
C2145       C  0.65752060  0.57919337  0.35745047    -0.11900
C2146       C  0.63684982  0.57067390  0.31822891    -0.25900
C2147       C  0.64597347  0.57739030  0.27030058     0.36700
C2148       C  0.67525255  0.59153119  0.26199463    -0.27600
F2149       F  0.70587088  0.60123235  0.38817495    -0.19700
H2150       H  0.65115584  0.57474448  0.39474973     0.16000
F2151       F  0.62677891  0.57043114  0.23171047    -0.23400
H2152       H  0.68200955  0.59643414  0.22496056     0.17800
C2153       C  0.91922506  0.65224496  0.09267293    -0.27400
C2154       C  0.90292412  0.61924430  0.07209793     0.06200
C2155       C  0.86736014  0.59486557  0.47549696     0.25800
C2156       C  0.85221068  0.60900603  0.46590802    -0.11900
C2157       C  0.87916143  0.65695324  0.07128637    -0.25900
C2158       C  0.90766523  0.67098977  0.09203038     0.36600
C2159       C  0.91607414  0.59997037  0.07117983     0.06200
F2160       F  0.85255717  0.56205008  0.47221211    -0.19700
H2161       H  0.82913610  0.59332031  0.45506434     0.16000
F2162       F  0.92419949  0.70258367  0.11282438    -0.23400
H2163       H  0.94099754  0.66359905  0.10983499     0.17800
C2164       C  0.94486018  0.61336222  0.05887441     0.25800
C2165       C  0.95737778  0.59561627  0.06012330    -0.11900
C2166       C  0.94115415  0.56374008  0.07150937    -0.25900
C2167       C  0.91211310  0.54976848  0.08183558     0.36700
C2168       C  0.89995492  0.56792381  0.08262369    -0.27600
F2169       F  0.89966105  0.56606885  0.42734559    -0.19700
H2170       H  0.93011777  0.54652682  0.46306052     0.16000
F2171       F  0.89592894  0.51909675  0.09377659    -0.23400
H2172       H  0.87804154  0.55702073  0.09327102     0.17800
C2173       C  0.93631226  0.81434415  0.08131871    -0.27400
C2174       C  0.92289483  0.83122612  0.07989103     0.06200
C2175       C  0.89239754  0.81314312  0.07376462     0.25800
C2176       C  0.87589357  0.77922785  0.06977189    -0.11900
C2177       C  0.88916780  0.76223818  0.07231732    -0.25900
C2178       C  0.91978302  0.78035224  0.07798537     0.36600
C2179       C  0.94053500  0.86752683  0.08613776     0.06200
F2180       F  0.87833787  0.82826015  0.07361560    -0.19700
H2181       H  0.85249791  0.76631564  0.06546954     0.16000
F2182       F  0.93395503  0.76546507  0.08029472    -0.23400
H2183       H  0.95973246  0.82750762  0.08500394     0.17800
C2184       C  0.96333128  0.88610445  0.12399557     0.25800
C2185       C  0.97858137  0.92004302  0.13124082    -0.11900
C2186       C  0.97139500  0.93641723  0.10138396    -0.25900
C2187       C  0.94889023  0.91785591  0.06301213     0.36700
C2188       C  0.93390296  0.88391285  0.05536242    -0.27600
F2189       F  0.97021683  0.87150329  0.15540848    -0.19700
H2190       H  0.99576017  0.93346974  0.16102438     0.16000
F2191       F  0.94118958  0.93234128  0.03286344    -0.23400
H2192       H  0.88867767  0.85460514  0.49198456     0.17800
C2193       C  0.68716710  0.62542029  0.10017730    -0.27400
C2194       C  0.69886149  0.61058295  0.07216219     0.06200
C2195       C  0.67971149  0.57881641  0.04739013     0.25800
C2196       C  0.64974162  0.56239769  0.05077201    -0.11900
C2197       C  0.63804972  0.57693739  0.07946348    -0.25900
C2198       C  0.65713220  0.60879637  0.10406106     0.36600
C2199       C  0.73092274  0.62777366  0.06995986     0.06200
F2200       F  0.68993675  0.56361771  0.01953236    -0.19700
H2201       H  0.63568928  0.53788901  0.03172228     0.16000
F2202       F  0.64686877  0.62383482  0.13221121    -0.23400
H2203       H  0.70137403  0.64964232  0.12011588     0.17800
C2204       C  0.74816801  0.65991002  0.05903225     0.25800
C2205       C  0.76353309  0.65801692  0.48293864    -0.11900
C2206       C  0.79194093  0.65973214  0.06681738    -0.25900
C2207       C  0.77451958  0.62741112  0.07727751     0.39100
C2208       C  0.74453523  0.61187128  0.07903554    -0.27600
F2209       F  0.72484936  0.66283932  0.50517083    -0.19700
H2210       H  0.77588681  0.68345729  0.47816614     0.16000
F2211       F  0.78634404  0.61079237  0.08693783    -0.23400
H2212       H  0.73191913  0.58733963  0.08829482     0.17800
C2213       C  0.80683945  0.65633517  0.46533875     0.81000
N2214       N  0.82233232  0.68848798  0.46100297    -0.77300
C2215       C  0.85137401  0.70562676  0.45764935     0.83400
N2216       N  0.86515784  0.69030878  0.45916835    -0.77300
C2217       C  0.85030681  0.65817143  0.46376349     0.83500
N2218       N  0.82105186  0.64127478  0.46703040    -0.79000
C2219       C  0.81695919  0.67627925  0.91019684     0.81000
N2220       N  0.83034234  0.66028333  0.91146944    -0.77300
C2221       C  0.85987906  0.67695477  0.91617977     0.83400
N2222       N  0.87587219  0.70990427  0.91943572    -0.77300
C2223       C  0.86290802  0.72617598  0.91780898     0.83500
N2224       N  0.83351286  0.70918497  0.91294610    -0.79000
C2225       C  0.71042782  0.87581975  0.75274257     0.81000
N2226       N  0.69664438  0.89143550  0.75237785    -0.77300
C2227       C  0.66726504  0.87454006  0.75412763     0.83400
N2228       N  0.65199402  0.84204655  0.75577697    -0.77300
C2229       C  0.66529343  0.82617551  0.75608486     0.83500
N2230       N  0.69443654  0.84324725  0.75432377    -0.79000
C2231       C  0.71014776  0.85898475  0.87676431     0.81000
N2232       N  0.69788021  0.87614013  0.87901998    -0.77300
C2233       C  0.66892288  0.86112344  0.88175827     0.83400
N2234       N  0.65217585  0.82853070  0.88207339    -0.77300
C2235       C  0.66398247  0.81097335  0.88000340     0.83500
N2236       N  0.69302486  0.82635877  0.87734200    -0.79000
C2237       C  0.60413362  0.55399505  0.57528857     0.77200
Tb2238     Tb  0.98056116  0.52618687  0.59161375     1.80700
O2239       O  0.59904372  0.56005912  0.61879017    -0.50800
O2240       O  0.54824418  0.98269064  0.67997340    -0.58200
C2241       C  0.54590983  0.58634670  0.64538368     0.93000
O2242       O  0.96886571  0.56486903  0.59811997    -0.57800
Tb2243     Tb  0.54843237  0.52131056  0.60847483     1.78100
O2244       O  0.92206638  0.97385120  0.62365959    -0.58300
O2245       O  0.49839198  0.95187230  0.58539859    -0.77100
O2246       O  0.55900791  0.57409909  0.62581570    -0.76400
O2247       O  0.52880376  0.51298617  0.52736035    -0.61700
C2248       C  0.97234162  0.94355321  0.58125464     0.92600
O2249       O  0.99321654  0.52036227  0.67152827    -0.73600
C2250       C  0.92188012  0.48635059  0.61033485     0.76100
C2251       C  0.55717793  0.96797646  0.65375984     0.77000
O2252       O  0.58145554  0.53258781  0.54795804    -0.58900
O2253       O  0.55554590  0.96964591  0.60791655    -0.50800
O2254       O  0.51361630  0.54571627  0.53312035    -0.76900
O2255       O  0.53475326  0.53008374  0.68595145    -0.60900
C2256       C  0.51040602  0.52204476  0.70158458     0.90800
C2257       C  0.52175383  0.52988485  0.50770415     0.92100
C2258       C  0.95958420  0.56032906  0.55342359     0.76400
O2259       O  0.94001733  0.51329109  0.63590324    -0.50200
O2260       O  0.96215075  0.53992269  0.52675259    -0.51300
O2261       O  0.96058776  0.95930094  0.58754682    -0.64200
O2262       O  0.51836862  0.57063588  0.64461146    -0.65300
C2263       C  0.59801648  0.55110553  0.85719997     0.77200
Tb2264     Tb  0.97506034  0.51371007  0.84847859     1.80700
O2265       O  0.58284889  0.54208571  0.89356804    -0.50800
O2266       O  0.57696985  0.00446773  0.91023968    -0.58200
C2267       C  0.53140755  0.56933386  0.87008004     0.93000
O2268       O  0.95731386  0.53759766  0.90388382    -0.57800
Tb2269     Tb  0.53711109  0.50826655  0.84853704     1.78100
O2270       O  0.94061494  0.98005472  0.84229524    -0.58300
O2271       O  0.50640543  0.96660522  0.85578612    -0.77100
O2272       O  0.53911522  0.55312401  0.88991944    -0.76400
O2273       O  0.53027309  0.52888560  0.78127818    -0.61700
C2274       C  0.98922102  0.96588706  0.89043738     0.92600
O2275       O  0.99616134  0.51823512  0.92641188    -0.73600
C2276       C  0.91642698  0.47509394  0.81621684     0.76100
C2277       C  0.57086620  0.98000707  0.88020797     0.77000
O2278       O  0.58286118  0.53992397  0.81605185    -0.58900
O2279       O  0.55348584  0.97386270  0.84383362    -0.50800
O2280       O  0.48235746  0.50665121  0.77049128    -0.76900
O2281       O  0.51870284  0.49662966  0.92555727    -0.60900
C2282       C  0.50151136  0.50124107  0.94940600     0.90800
C2283       C  0.50738955  0.51922695  0.75429371     0.92100
C2284       C  0.95910618  0.55756029  0.87679560     0.76400
O2285       O  0.92593834  0.48490543  0.86119454    -0.50200
O2286       O  0.97019014  0.55685874  0.83687101    -0.51300
O2287       O  0.98363024  0.98559041  0.91075331    -0.64200
O2288       O  0.50724338  0.55590342  0.84494473    -0.65300
C2289       C  0.63756302  0.72354522  0.88880350    -0.27400
C2290       C  0.60774962  0.70741362  0.87570715     0.06200
C2291       C  0.59662927  0.72538956  0.86387612     0.25800
C2292       C  0.61507734  0.75899981  0.86568432    -0.11900
C2293       C  0.64497749  0.77533191  0.87892162    -0.25900
C2294       C  0.65610870  0.75718878  0.89037672     0.36600
C2295       C  0.58835924  0.67192335  0.87503032     0.06200
F2296       F  0.56804033  0.71036983  0.84950602    -0.19700
H2297       H  0.60591163  0.77220771  0.85585556     0.16000
F2298       F  0.69368341  0.78875290  0.32334719    -0.23400
H2299       H  0.66264142  0.72993651  0.34284257     0.17800
C2300       C  0.59453745  0.65113027  0.84807799     0.25800
C2301       C  0.57625685  0.61764188  0.84810353    -0.11900
C2302       C  0.55144463  0.60452941  0.87426298    -0.25900
C2303       C  0.54506947  0.62508294  0.90107516     0.36700
C2304       C  0.56359301  0.65866073  0.90171279    -0.27600
F2305       F  0.61766807  0.66312724  0.82043271    -0.19700
H2306       H  0.58098179  0.60181910  0.82653109     0.16000
F2307       F  0.52115159  0.61268227  0.92683295    -0.23400
H2308       H  0.55868160  0.67435382  0.92311874     0.17800
C2309       C  0.84761454  0.91851526  0.83892677    -0.27400
C2310       C  0.83436042  0.92804604  0.87353579     0.06200
C2311       C  0.85166613  0.95471785  0.91040942     0.25800
C2312       C  0.88176804  0.97207751  0.91167266    -0.11900
C2313       C  0.89511961  0.96314415  0.87630463    -0.25900
C2314       C  0.87781524  0.93603863  0.83998299     0.36600
C2315       C  0.80250724  0.91005623  0.87134382     0.06200
F2316       F  0.82729386  0.97792864  0.34625840    -0.19700
H2317       H  0.88204792  0.00473107  0.36706634     0.16000
F2318       F  0.88687806  0.42595404  0.73156940    -0.23400
H2319       H  0.83453474  0.89802773  0.81024779     0.17800
C2320       C  0.78874363  0.92648356  0.87011209     0.25800
C2321       C  0.75877679  0.90961643  0.87149710    -0.11900
C2322       C  0.74185023  0.87596539  0.87357646    -0.25900
C2323       C  0.75569346  0.85935746  0.87289111     0.36700
C2324       C  0.78575994  0.87638162  0.87177202    -0.27600
F2325       F  0.80426637  0.95882276  0.86707906    -0.19700
H2326       H  0.74888394  0.92309257  0.87084808     0.16000
F2327       F  0.74048639  0.82685834  0.87414873    -0.23400
H2328       H  0.79609914  0.86336265  0.87244728     0.17800
C2329       C  0.58838343  0.91715338  0.85433118    -0.27400
C2330       C  0.61318173  0.93022123  0.88704027     0.06200
C2331       C  0.62323908  0.95901554  0.91929228     0.25800
C2332       C  0.60864034  0.97446371  0.91843103    -0.11900
C2333       C  0.58407008  0.96162706  0.88502448    -0.25900
C2334       C  0.57391656  0.93260463  0.85320518     0.36600
C2335       C  0.62799053  0.91322321  0.88734385     0.06200
F2336       F  0.64695909  0.97199167  0.95183927    -0.19700
H2337       H  0.61699528  0.99691790  0.94301521     0.16000
F2338       F  0.55060496  0.91964069  0.81973033    -0.23400
H2339       H  0.58056034  0.89522912  0.82870663     0.17800
C2340       C  0.61209049  0.88004891  0.89215096     0.25800
C2341       C  0.62563871  0.86353560  0.89036557    -0.11900
C2342       C  0.65539904  0.87968409  0.88397695    -0.25900
C2343       C  0.67145305  0.91314164  0.87960116     0.36700
C2344       C  0.65774412  0.92964638  0.88124656    -0.27600
F2345       F  0.58343856  0.86366503  0.89936147    -0.19700
H2346       H  0.61261738  0.83790769  0.89418569     0.16000
F2347       F  0.68681762  0.92910905  0.28953440    -0.23400
H2348       H  0.67026413  0.95518331  0.87676073     0.17800
C2349       C  0.56994429  0.66481616  0.72860771    -0.27400
C2350       C  0.59801310  0.68614919  0.71447267     0.06200
C2351       C  0.60932543  0.67385916  0.67981404     0.25800
C2352       C  0.59245608  0.64131808  0.65847955    -0.11900
C2353       C  0.56382561  0.62035022  0.67059427    -0.25900
C2354       C  0.55289915  0.63230091  0.70678779     0.36600
C2355       C  0.61446249  0.72154562  0.73240438     0.06200
F2356       F  0.63612551  0.69366015  0.66438212    -0.19700
H2357       H  0.60156300  0.63280896  0.63106893     0.16000
F2358       F  0.52581472  0.61265654  0.72125322    -0.23400
H2359       H  0.56100627  0.67349828  0.75607051     0.17800
C2360       C  0.60122946  0.73853314  0.72944061     0.25800
C2361       C  0.61766967  0.77237741  0.73971428    -0.11900
C2362       C  0.64774232  0.79017554  0.75245929    -0.25900
C2363       C  0.66069842  0.77304579  0.75807237     0.36700
C2364       C  0.64410636  0.73908939  0.74847032    -0.27600
F2365       F  0.57276696  0.72267463  0.71336325    -0.19700
H2366       H  0.60693518  0.78467519  0.73530093     0.16000
F2367       F  0.68943261  0.78896390  0.77208529    -0.23400
H2368       H  0.65462238  0.72649367  0.75232060     0.17800
C2369       C  0.85546854  0.96114032  0.74605307    -0.27400
C2370       C  0.83129190  0.93693765  0.71388069     0.06200
C2371       C  0.83587357  0.92594757  0.66737343     0.25800
C2372       C  0.86396906  0.93841524  0.65376820    -0.11900
C2373       C  0.88823036  0.96202632  0.68614679    -0.25900
C2374       C  0.88375587  0.97338687  0.73265022     0.36600
C2375       C  0.80125353  0.92229083  0.72869595     0.06200
F2376       F  0.81305995  0.90354142  0.63449213    -0.19700
H2377       H  0.86673900  0.92963638  0.61750664     0.16000
F2378       F  0.89542984  0.50780096  0.67979178    -0.23400
H2379       H  0.85242558  0.97011625  0.78189033     0.17800
C2380       C  0.78265814  0.88849443  0.72735858     0.25800
C2381       C  0.75362591  0.87405098  0.73639519    -0.11900
C2382       C  0.74212221  0.89280037  0.74686726    -0.25900
C2383       C  0.76106662  0.92691091  0.75019476     0.36700
C2384       C  0.79042344  0.94145832  0.74143066    -0.27600
F2385       F  0.79253372  0.86925830  0.71668901    -0.19700
H2386       H  0.74003803  0.84788732  0.73406503     0.16000
F2387       F  0.75137171  0.94622857  0.76174196    -0.23400
H2388       H  0.80447945  0.96757703  0.74311279     0.17800
C2389       C  0.58710908  0.91676316  0.66220673    -0.27400
C2390       C  0.60276638  0.92941667  0.70916629     0.06200
C2391       C  0.60230743  0.95400441  0.73856229     0.25800
C2392       C  0.58548541  0.96466014  0.72191543    -0.11900
C2393       C  0.57051027  0.95258651  0.67438747    -0.25900
C2394       C  0.57145042  0.92847661  0.64462566     0.36600
C2395       C  0.61906054  0.91627217  0.72667814     0.06200
F2396       F  0.61824466  0.96787583  0.78304666    -0.19700
H2397       H  0.58510684  0.98328201  0.74542437     0.16000
F2398       F  0.55731018  0.91628654  0.59845119    -0.23400
H2399       H  0.58753199  0.89816946  0.63856796     0.17800
C2400       C  0.60510764  0.88259111  0.72483920     0.25800
C2401       C  0.62084342  0.86964726  0.73581931    -0.11900
C2402       C  0.65100917  0.88984186  0.74846608    -0.25900
C2403       C  0.66477765  0.92377363  0.75280969     0.36700
C2404       C  0.64883354  0.93680046  0.74213717    -0.27600
F2405       F  0.57620447  0.86205251  0.71147088    -0.19700
H2406       H  0.60930720  0.84346410  0.73262679     0.16000
F2407       F  0.69357172  0.94435564  0.76676455    -0.23400
H2408       H  0.65998065  0.96289542  0.74409073     0.17800
C2409       C  0.87461298  0.61042044  0.90215927    -0.27400
C2410       C  0.90500210  0.62858363  0.91059626     0.06200
C2411       C  0.92022207  0.66250393  0.92257811     0.25800
C2412       C  0.90534860  0.67777594  0.92534822    -0.11900
C2413       C  0.87492226  0.65974065  0.91587405    -0.25900
C2414       C  0.85968778  0.62566325  0.90457244     0.36600
C2415       C  0.92059387  0.61205292  0.90512757     0.06200
F2416       F  0.94951296  0.68093125  0.93200424    -0.19700
H2417       H  0.91786352  0.70394846  0.93457621     0.16000
F2418       F  0.83045563  0.60695818  0.89440405    -0.23400
H2419       H  0.86239180  0.58429298  0.89232029     0.17800
C2420       C  0.91236058  0.58512705  0.92970983     0.25800
C2421       C  0.92603812  0.56864901  0.92226755    -0.11900
C2422       C  0.94764474  0.57796930  0.88898085    -0.25900
C2423       C  0.95622220  0.60519268  0.86482244     0.36700
C2424       C  0.94301489  0.62218729  0.87329322    -0.27600
F2425       F  0.89076538  0.57442045  0.96045653    -0.19700
H2426       H  0.91885836  0.54767323  0.94118432     0.16000
F2427       F  0.97711595  0.61517790  0.83256447    -0.23400
H2428       H  0.94964192  0.64269122  0.85353180     0.17800
C2429       C  0.96273768  0.87844418  0.90055724    -0.27400
C2430       C  0.93403036  0.86513047  0.91227657     0.06200
C2431       C  0.92403408  0.88558829  0.91870560     0.25800
C2432       C  0.94218244  0.91829464  0.91194297    -0.11900
C2433       C  0.97065205  0.93135090  0.89872994    -0.25900
C2434       C  0.98085166  0.91110365  0.89391175     0.36600
C2435       C  0.91485573  0.82987430  0.91662231     0.06200
F2436       F  0.89693500  0.87421002  0.93239642    -0.19700
H2437       H  0.93380303  0.93334413  0.91663054     0.16000
F2438       F  0.00846799  0.92283150  0.88363659    -0.23400
H2439       H  0.97107380  0.86336049  0.89563352     0.17800
C2440       C  0.88678318  0.81027128  0.89195522     0.25800
C2441       C  0.86971918  0.77680557  0.89397128    -0.11900
C2442       C  0.88059748  0.76195581  0.91895274    -0.25900
C2443       C  0.90875204  0.78148762  0.94318184     0.36700
C2444       C  0.92542573  0.81509711  0.94266679    -0.27600
F2445       F  0.87642106  0.82306318  0.86351761    -0.19700
H2446       H  0.84832358  0.76224427  0.87409684     0.16000
F2447       F  0.92026902  0.76813615  0.96718847    -0.23400
H2448       H  0.94694887  0.82961783  0.96208636     0.17800
C2449       C  0.74027608  0.65721991  0.90452386    -0.27400
C2450       C  0.72334295  0.62368819  0.88839107     0.06200
C2451       C  0.73722066  0.60731972  0.88096738     0.25800
C2452       C  0.76748912  0.62434868  0.88906467    -0.11900
C2453       C  0.78464308  0.65813732  0.90415242    -0.25900
C2454       C  0.77051271  0.67435717  0.91214268     0.36600
C2455       C  0.69128633  0.60603623  0.87953445     0.06200
F2456       F  0.72145180  0.57474597  0.86653736    -0.19700
H2457       H  0.77751085  0.61106009  0.88275524     0.16000
F2458       F  0.78573868  0.70681593  0.92741382    -0.23400
H2459       H  0.73004240  0.67030711  0.91054579     0.17800
C2460       C  0.67479464  0.60738442  0.91730759     0.25800
C2461       C  0.64457721  0.58997346  0.90925919    -0.11900
C2462       C  0.63017159  0.57147021  0.86308903    -0.25900
C2463       C  0.64671362  0.57088666  0.82468839     0.36700
C2464       C  0.67696924  0.58780402  0.83312481    -0.27600
F2465       F  0.68783087  0.62479181  0.96252532    -0.19700
H2466       H  0.63235092  0.59075931  0.93948027     0.16000
F2467       F  0.63363757  0.55305417  0.77969202    -0.23400
H2468       H  0.68929541  0.58670843  0.80333802     0.17800
C2469       C  0.91158902  0.64840405  0.49523803    -0.27400
C2470       C  0.89725278  0.61458255  0.49061891     0.06200
C2471       C  0.87416135  0.60512388  0.05241275     0.25800
C2472       C  0.86258803  0.62379176  0.05206509    -0.11900
C2473       C  0.86657861  0.64300982  0.47106395    -0.25900
C2474       C  0.89663204  0.66253963  0.48572565     0.36600
C2475       C  0.91354733  0.60069747  0.50524492     0.06200
F2476       F  0.85724329  0.57342729  0.03229289    -0.19700
H2477       H  0.84056816  0.61222698  0.03588013     0.16000
F2478       F  0.91161217  0.69544776  0.49309038    -0.23400
H2479       H  0.93455609  0.66406194  0.50708673     0.17800
C2480       C  0.91417689  0.57707669  0.47319545     0.25800
C2481       C  0.93017256  0.56492138  0.48812522    -0.11900
C2482       C  0.94545441  0.57578368  0.53544008    -0.25900
C2483       C  0.94510383  0.59976743  0.56702622     0.36700
C2484       C  0.92942583  0.61207098  0.55191124    -0.27600
F2485       F  0.96080445  0.64341372  0.04473050    -0.19700
H2486       H  0.97972827  0.60668648  0.05175614     0.16000
F2487       F  0.95961935  0.61114553  0.61290937    -0.23400
H2488       H  0.92930877  0.63028509  0.57718796     0.17800
C2489       C  0.91298261  0.79387984  0.45580104    -0.27400
C2490       C  0.90284939  0.81009310  0.48498134     0.06200
C2491       C  0.87464568  0.79147395  0.50066018     0.25800
C2492       C  0.85749938  0.75781989  0.48832494    -0.11900
C2493       C  0.86828831  0.74150870  0.46203195    -0.25900
C2494       C  0.89619818  0.75987314  0.44545264     0.36600
C2495       C  0.92212849  0.84566438  0.50292667     0.06200
F2496       F  0.86424831  0.80532931  0.53129232    -0.19700
H2497       H  0.83634567  0.74433970  0.50251189     0.16000
F2498       F  0.90751934  0.74496610  0.42036159    -0.23400
H2499       H  0.93424714  0.80741720  0.44212310     0.17800
C2500       C  0.95122917  0.86028684  0.52101900     0.25800
C2501       C  0.96743183  0.89216036  0.54552447    -0.11900
C2502       C  0.95511821  0.91024060  0.55297612    -0.25900
C2503       C  0.92661030  0.89628834  0.53217644     0.36700
C2504       C  0.91060613  0.86463171  0.50707335    -0.27600
F2505       F  0.96368429  0.84337126  0.51782636    -0.19700
H2506       H  0.98952059  0.90233889  0.55996601     0.16000
F2507       F  0.91377200  0.91278995  0.53677343    -0.23400
H2508       H  0.91690207  0.87035149  0.02536737     0.17800
C2509       C  0.68517892  0.61224510  0.56634362    -0.27400
C2510       C  0.68950496  0.59685523  0.52426465     0.06200
C2511       C  0.66561182  0.56733701  0.49975078     0.25800
C2512       C  0.63797994  0.55399132  0.51628390    -0.11900
C2513       C  0.63359856  0.56932003  0.55819312    -0.25900
C2514       C  0.65755421  0.59851042  0.58354036     0.36600
C2515       C  0.71888846  0.61150929  0.50628662     0.06200
F2516       F  0.66885441  0.55159855  0.45923955    -0.19700
H2517       H  0.61994595  0.53131179  0.49648575     0.16000
F2518       F  0.65427361  0.61396114  0.62445663    -0.23400
H2519       H  0.70332925  0.63475830  0.58631329     0.17800
C2520       C  0.73559053  0.64421166  0.49834158     0.25800
C2521       C  0.77827106  0.67563160  0.05755441    -0.11900
C2522       C  0.77569894  0.63970813  0.47537515    -0.25900
C2523       C  0.75841213  0.60655236  0.48128672     0.39100
C2524       C  0.73042041  0.59277047  0.49680902    -0.27600
F2525       F  0.73587902  0.67596274  0.04884687    -0.19700
H2526       H  0.79087034  0.70031790  0.04894587     0.16000
F2527       F  0.76856124  0.58744320  0.47292622    -0.23400
H2528       H  0.71792544  0.56747323  0.50248024     0.17800
loop_ 
_geom_bond_atom_site_label_1 
_geom_bond_atom_site_label_2 
_geom_bond_distance 
_geom_bond_site_symmetry_2 
_ccdc_geom_bond_type 
C1            N2   1.359       .  A
C1            N6   1.361       .  A
C1          C310   1.491       .  S
N2            C3   1.359       .  A
C3            N4   1.358       .  A
C3          C281   1.490       .  S
N4            C5   1.360       .  A
C5            N6   1.361       .  A
C5          C261   1.480       .  S
C7            N8   1.362       .  A
C7           N12   1.359       .  A
C7          C241   1.489       .  S
N8            C9   1.362       .  A
C9           N10   1.363       .  A
C9          C201   1.494       .  S
N10          C11   1.361       .  A
C11          N12   1.360       .  A
C11         C230   1.493       .  S
C13          N14   1.366       .  A
C13          N18   1.360       .  A
C13         C170   1.498       .  S
N14          C15   1.366       .  A
C15          N16   1.361       .  A
C15         C190   1.499       .  S
N16          C17   1.359       .  A
C17          N18   1.357       .  A
C17         C150   1.492       .  S
C19          N20   1.362       .  A
C19          N24   1.358       .  A
C19         C110   1.488       .  S
N20          C21   1.360       .  A
C21          N22   1.357       .  A
C21         C130   1.486       .  S
N22          C23   1.355       .  A
C23          N24   1.356       .  A
C23          C81   1.481       .  S
C25         C301   1.481       .  S
C25          O40   1.265       .  A
C25          O27   1.262       .  A
Tb26         O48   2.363       .  S
Tb26         O37   2.360       .  S
Tb26         O30   2.349       .  S
Tb26         O47   2.357       .  S
Tb26        O681   2.358   1_545  S
Tb26        O664   2.358   1_545  S
Tb26       O1306   2.347       .  S
Tb26       O1314   2.350       .  S
O27         Tb31   2.347       .  S
O28          C39   1.264       .  A
O28        Tb663   2.373       .  S
C29         C141   1.483       .  S
C29          O34   1.274       .  A
C29          O50   1.273       .  A
O30          C46   1.262       .  A
Tb31         O35   2.328       .  S
Tb31         O40   2.362       .  S
Tb31         O34   2.356       .  S
Tb31         O43   2.336       .  S
Tb31        O660   2.351       .  S
Tb31        O673   2.360   1_545  S
Tb31        O665   2.345   1_545  S
O32         C670   1.261       .  A
O32        Tb658   2.372       .  S
O33        C1300   1.276   1_455  A
O33        Tb663   2.360       .  S
O35          C45   1.267       .  A
C36         C290   1.480       .  S
C36          O49   1.275       .  A
C36        O1297   1.276       .  A
O37        C1308   1.277       .  A
C38         C793   1.481       .  S
C38          O47   1.261   1_565  A
C38         O664   1.261       .  A
C39         C181   1.490       .  S
C39          O41   1.262       .  A
O41        Tb663   2.361       .  S
O42          C45   1.269       .  A
O42       Tb1290   2.354   1_455  S
O43          C44   1.274       .  A
C44          C71   1.468       .  S
C44        O1301   1.276   1_455  A
C45         C386   1.469   1_554  S
C46         C270   1.481       .  S
C46          O48   1.262       .  A
O49        Tb658   2.343       .  S
O50       Tb1290   2.352   1_455  S
C51         C250   1.480       .  S
C51          O66   1.264       .  A
C51          O53   1.260       .  A
Tb52         O74   2.359       .  S
Tb52         O63   2.344       .  S
Tb52         O56   2.363       .  S
Tb52         O73   2.337   1_545  S
Tb52        O707   2.338   1_545  S
Tb52        O690   2.370   1_545  S
Tb52       O1332   2.367       .  S
Tb52       O1340   2.313       .  S
O53         Tb57   2.356       .  S
O54          C65   1.261       .  A
O54        Tb689   2.353       .  S
C55          C90   1.458       .  S
C55          O60   1.267       .  A
C55          O76   1.264       .  A
O56          C72   1.261       .  A
Tb57         O61   2.338       .  S
Tb57         O66   2.363       .  S
Tb57         O60   2.347       .  S
Tb57         O69   2.331       .  S
Tb57        O686   2.368   1_545  S
Tb57        O699   2.363   1_545  S
Tb57        O691   2.347   1_445  S
O58         C696   1.263       .  A
O58        Tb684   2.356       .  S
O59        C1326   1.272   1_455  A
O59        Tb689   2.361       .  S
O61          C71   1.272       .  A
C62         C221   1.495       .  S
C62          O75   1.266       .  A
C62        O1323   1.273       .  A
O63        C1334   1.272       .  A
C64         C733   1.471       .  S
C64          O73   1.255       .  A
C64         O690   1.261       .  A
C65         C121   1.479       .  S
C65          O67   1.261       .  A
O67        Tb689   2.356       .  S
O68          C71   1.276   1_655  A
O68       Tb1316   2.354       .  S
O69          C70   1.273       .  A
C70         C361   1.458       .  S
C70        O1327   1.276   1_455  A
C72         C210   1.482       .  S
C72          O74   1.260       .  A
O75        Tb684   2.337       .  S
O76       Tb1316   2.319   1_455  S
C77          C78   1.405       .  A
C77          C82   1.394       .  A
C77         H403   1.084       .  S
C78          C83   1.486       .  S
C78          C79   1.409       .  A
C79          C80   1.396       .  A
C79          F84   1.357       .  S
C80          C81   1.406       .  A
C80          H85   1.084       .  S
C81          C82   1.407       .  A
C82         F402   1.357       .  S
C83          C88   1.412       .  A
C83          C92   1.408       .  A
F86         C398   1.358       .  S
H87         C393   1.084       .  S
C88          C89   1.392       .  A
C88          F93   1.357       .  S
C89          C90   1.395       .  A
C89          H94   1.085       .  S
C90          C91   1.402       .  A
C91          C92   1.397       .  A
C91          F95   1.358       .  S
C92          H96   1.083       .  S
C97          C98   1.405       .  A
C97         C102   1.400       .  A
C97         H107   1.084       .  S
C98         C103   1.480       .  S
C98          C99   1.405       .  A
C99         C100   1.396       .  A
C99         F420   1.358       .  S
C100        C101   1.405       .  A
C100        H421   1.084       .  S
C101        C696   1.477       .  S
C101        C102   1.408       .  A
C102        F738   1.358       .  S
C103        C108   1.405       .  A
C103        C112   1.401       .  A
F104        C415   1.357       .  S
H105        C416   1.084       .  S
F106        C734   1.357       .  S
C108        C109   1.397       .  A
C108        F113   1.357       .  S
C109        C110   1.407       .  A
C109        H114   1.083       .  S
C110        C111   1.413       .  A
C111        C112   1.398       .  A
C111        F115   1.357       .  S
C112        H116   1.083       .  S
C117        C118   1.402       .  A
C117        C122   1.398       .  A
C117        H127   1.083       .  S
C118        C123   1.471       .  S
C118        C119   1.401       .  A
C119        C120   1.398       .  A
C119        F124   1.357       .  S
C120        C121   1.407       .  A
C120        H125   1.081       .  S
C121        C122   1.409       .  A
C122        F126   1.357       .  S
C123        C128   1.399       .  A
C123        C132   1.401       .  A
C128        C129   1.396       .  A
C128        F133   1.357       .  S
C129        C130   1.410       .  A
C129        H134   1.084       .  S
C130        C131   1.412       .  A
C131        C132   1.400       .  A
C131        F451   1.357       .  S
C132        H136   1.085       .  S
F135        C447   1.357       .  S
C137        C138   1.404       .  A
C137        C142   1.403       .  A
C137        H147   1.085       .  S
C138        C143   1.485       .  S
C138        C139   1.407       .  A
C139        C140   1.399       .  A
C139        F144   1.358       .  S
C140        C141   1.405       .  A
C140        H145   1.085       .  S
C141        C142   1.409       .  A
C142        F146   1.357       .  S
C143        C148   1.404       .  A
C143        C152   1.404       .  A
C148        C149   1.400       .  A
C148        F153   1.357       .  S
C149        C150   1.409       .  A
C149        H154   1.083       .  S
C150        C151   1.413       .  A
C151        C152   1.401       .  A
C151        F155   1.358       .  S
C152        H156   1.083       .  S
C157        C158   1.403       .  A
C157        C162   1.404       .  A
C157        H167   1.083       .  S
C158        C163   1.489       .  S
C158        C159   1.407       .  A
C159        C160   1.404       .  A
C159        F164   1.358       .  S
C160        C161   1.408       .  A
C160        H165   1.083       .  S
C161        C670   1.495       .  S
C161        C162   1.411       .  A
C162        F798   1.353       .  S
C163        C168   1.404       .  A
C163        C172   1.405       .  A
F166        C794   1.358   1_545  S
C168        C169   1.401       .  A
C168        F173   1.358       .  S
C169        C170   1.412       .  A
C169        H174   1.081       .  S
C170        C171   1.412       .  A
C171        C172   1.406       .  A
C171        F175   1.357       .  S
C172        H176   1.082       .  S
C177        C178   1.404       .  A
C177        C182   1.403       .  A
C177        H187   1.084       .  S
C178        C183   1.486       .  S
C178        C179   1.404       .  A
C179        C180   1.403       .  A
C179        F184   1.357       .  S
C180        C181   1.407       .  A
C180        H185   1.081       .  S
C181        C182   1.410       .  A
C182        F186   1.357       .  S
C183        C188   1.402       .  A
C183        C192   1.404       .  A
C188        C189   1.400       .  A
C188        F193   1.357       .  S
C189        C190   1.411       .  A
C189        H194   1.083       .  S
C190        C191   1.413       .  A
C191        C192   1.406       .  A
C191        F195   1.357       .  S
C192        H196   1.084       .  S
C197        C198   1.406       .  A
C197        C202   1.403       .  A
C197        H207   1.083       .  S
C198        C203   1.492       .  S
C198        C199   1.407       .  A
C199        C200   1.400       .  A
C199        F204   1.357       .  S
C200        C201   1.407       .  A
C200        H205   1.083       .  S
C201        C202   1.413       .  A
C202        F206   1.357       .  S
C203        C208   1.408       .  A
C203        C212   1.406       .  A
C208        C209   1.401       .  A
C208        F213   1.355       .  S
C209        C210   1.406       .  A
C209        H214   1.085       .  S
C210        C211   1.407       .  A
C211        C212   1.399       .  A
C211        F215   1.357       .  S
C212        H216   1.084       .  S
C217        C218   1.409       .  A
C217        C222   1.405       .  A
C217        H227   1.082       .  S
C218        C223   1.498       .  S
C218        C219   1.408       .  A
C219        C220   1.400       .  A
C219        F224   1.356       .  S
C220        C221   1.410       .  A
C220        H225   1.083       .  S
C221        C222   1.409       .  A
C222        F226   1.356       .  S
C223        C228   1.409       .  A
C223        C232   1.408       .  A
C228        C229   1.401       .  A
C228        F233   1.357       .  S
C229        C230   1.408       .  A
C229        H234   1.083       .  S
C230        C231   1.410       .  A
C231        C232   1.403       .  A
C231        F235   1.357       .  S
C232        H236   1.083       .  S
C237        C238   1.403       .  A
C237        C242   1.403       .  A
C237        H247   1.083       .  S
C238        C243   1.486       .  S
C238        C239   1.406       .  A
C239        C240   1.400       .  A
C239        F244   1.358       .  S
C240        C241   1.406       .  A
C240        H245   1.083       .  S
C241        C242   1.411       .  A
C242        F246   1.357       .  S
C243        C248   1.406       .  A
C243        C252   1.405       .  A
C248        C249   1.402       .  A
C248        F253   1.354       .  S
C249        C250   1.406       .  A
C249        H254   1.084       .  S
C250        C251   1.406       .  A
C251        C252   1.399       .  A
C251        F255   1.357       .  S
C252        H256   1.084       .  S
C257        C258   1.402       .  A
C257        C262   1.400       .  A
C257        H267   1.084       .  S
C258        C263   1.478   1_556  S
C258        C575   1.406   1_556  A
C259        C260   1.394       .  A
C259        C574   1.410       .  A
C259        F264   1.357       .  S
C260        C577   1.402       .  A
C260        H265   1.084       .  S
C261        C262   1.409       .  A
C261        C576   1.405   1_556  A
C262        F266   1.357       .  S
C263        C268   1.404   1_554  A
C263        C272   1.402       .  A
C268        C269   1.403       .  A
C268        F589   1.356       .  S
C269        C270   1.408   1_556  A
C269        H590   1.082       .  S
C270        C271   1.407       .  A
C271        C272   1.395       .  A
C271        F275   1.357       .  S
C272        H276   1.084       .  S
F273        C584   1.357       .  S
H274        C585   1.083       .  S
C277        C278   1.406       .  A
C277        C282   1.402       .  A
C277        H287   1.083       .  S
C278        C283   1.489   1_556  S
C278        C279   1.407       .  A
C279        C280   1.395       .  A
C279        F284   1.358   1_556  S
C280        C281   1.406       .  A
C280        H285   1.083       .  S
C281        C282   1.413       .  A
C282        F286   1.357       .  S
C283        C288   1.410       .  A
C283        C292   1.406   1_554  A
C288        C289   1.401       .  A
C288        F293   1.357       .  S
C289        C290   1.405       .  A
C289        H294   1.084       .  S
C290        C291   1.407       .  A
C291        C292   1.397   1_554  A
C291        F295   1.358   1_554  S
C292        H612   1.084       .  S
H296        C608   1.082       .  S
C297        C298   1.402       .  A
C297        C302   1.397       .  A
C297        H307   1.084       .  S
C298        C303   1.483       .  S
C298        C299   1.407       .  A
C299        C300   1.402       .  A
C299        F304   1.357   1_554  S
C300        C301   1.406       .  A
C300        H305   1.084       .  S
C301        C302   1.409       .  A
C302        F306   1.358       .  S
C303        C308   1.403       .  A
C303        C312   1.404       .  A
C308        C625   1.399       .  A
C308        F629   1.357       .  S
C309        C624   1.396       .  A
C309        C626   1.406       .  A
C309        H314   1.083       .  S
C310        C311   1.411   1_556  A
C310        C625   1.410   1_556  A
C311        C312   1.400       .  A
C311        F315   1.357       .  S
C312        H316   1.083       .  S
F313        C624   1.357       .  S
C317        N318   1.359       .  A
C317        N322   1.357       .  A
C317        C626   1.486       .  S
N318        C319   1.358       .  A
C319        N320   1.360       .  A
C319        C597   1.488       .  S
N320        C321   1.358       .  A
C321        N322   1.357       .  A
C321        C577   1.479       .  S
C323        N324   1.365       .  A
C323        N328   1.357       .  A
C323        C557   1.494       .  S
N324        C325   1.366       .  A
C325        N326   1.361       .  A
C325        C517   1.493       .  S
N326        C327   1.358       .  A
C327        N328   1.356       .  A
C327        C546   1.486       .  S
C329        N330   1.362       .  A
C329        N334   1.360       .  A
C329        C486   1.492       .  S
N330        C331   1.361       .  A
C331        N332   1.358       .  A
C331        C506   1.490       .  S
N332        C333   1.357       .  A
C333        N334   1.359       .  A
C333        C466   1.487       .  S
C335        N336   1.367       .  A
C335        N340   1.355       .  A
C335        C426   1.491       .  S
N336        C337   1.367       .  A
C337        N338   1.360       .  A
C337        C446   1.494       .  S
N338        C339   1.353       .  A
C339        N340   1.350       .  A
C339        C397   1.474       .  S
C341        C617   1.478       .  S
C341        O356   1.262       .  A
C341        O343   1.258       .  A
Tb342       O364   2.348       .  S
Tb342       O997   2.348   1_545  S
Tb342       O980   2.360   1_545  S
Tb342      O1622   2.367       .  S
Tb342       O353   2.342   1_545  S
Tb342       O346   2.367       .  S
Tb342      O1630   2.369       .  S
Tb342       O363   2.376   1_545  S
O343       Tb347   2.347       .  S
O344        C355   1.263       .  A
O344       Tb979   2.353       .  S
C345        C457   1.488       .  S
C345        O350   1.268       .  A
C345        O366   1.272       .  A
O346        C362   1.260       .  A
Tb347       O976   2.364   1_545  S
Tb347       O351   2.329   1_545  S
Tb347       O356   2.365       .  S
Tb347       O350   2.335       .  S
Tb347       O989   2.351   1_545  S
Tb347       O359   2.319       .  S
Tb347       O981   2.357   1_445  S
O348        C986   1.262       .  A
O348       Tb974   2.358       .  S
O349       C1616   1.269   1_455  A
O349       Tb979   2.344       .  S
O351        C361   1.275   1_565  A
C352        C606   1.487       .  S
C352       O1613   1.265       .  A
C352        O365   1.270       .  A
O353       C1624   1.264   1_565  A
C354       C1109   1.488       .  S
C354        O980   1.261       .  A
C354        O363   1.263       .  A
C355        C497   1.476       .  S
C355        O357   1.261       .  A
O357       Tb979   2.354       .  S
O358        C361   1.279   1_655  A
O358      Tb1606   2.358       .  S
O359        C360   1.262       .  A
C360        C387   1.454       .  S
C360       O1617   1.262   1_445  A
C362        C586   1.468       .  S
C362        O364   1.258       .  A
O365       Tb974   2.361       .  S
O366      Tb1606   2.359   1_455  S
C367        C566   1.488       .  S
C367        O382   1.262       .  A
C367        O369   1.264       .  A
Tb368       O390   2.378       .  S
Tb368      O1023   2.338   1_545  S
Tb368      O1006   2.346   1_545  S
Tb368      O1648   2.339   1_545  S
Tb368       O379   2.356       .  S
Tb368       O372   2.353       .  S
Tb368      O1656   2.329       .  S
Tb368       O389   2.339       .  S
O369       Tb373   2.364       .  S
O370        C381   1.266       .  A
O370      Tb1005   2.382       .  S
C371        C406   1.469       .  S
C371        O376   1.270       .  A
C371        O392   1.268       .  A
O372        C388   1.262       .  A
Tb373      O1002   2.350       .  S
Tb373       O377   2.322       .  S
Tb373       O382   2.362       .  S
Tb373       O376   2.340       .  S
Tb373      O1015   2.330   1_545  S
Tb373       O385   2.347       .  S
Tb373      O1007   2.363   1_545  S
O374       C1012   1.260       .  A
O374      Tb1000   2.378       .  S
O375       C1642   1.265       .  A
O375      Tb1005   2.334   1_655  S
O377        C387   1.265       .  A
C378        C537   1.487       .  S
C378       O1639   1.268       .  A
C378        O391   1.267       .  A
O379       C1650   1.277       .  A
C380       C1049   1.471       .  S
C380       O1006   1.264       .  A
C380        O389   1.263   1_565  A
C381        C437   1.488       .  S
C381        O383   1.260       .  A
O383      Tb1005   2.346       .  S
O384        C387   1.267   1_655  A
O384      Tb1632   2.338       .  S
O385        C386   1.276       .  A
C386       O1643   1.276       .  A
C388        C526   1.482       .  S
C388        O390   1.264       .  A
O391      Tb1000   2.339       .  S
O392      Tb1632   2.331   1_455  S
C393        C394   1.403       .  A
C393        C398   1.395       .  A
C394        C399   1.484       .  S
C394        C395   1.410       .  A
C395        C396   1.398       .  A
C395        F400   1.357       .  S
C396        C397   1.402       .  A
C396        H401   1.085       .  S
C397        C398   1.408       .  A
C399        C404   1.409       .  A
C399        C408   1.405       .  A
C404        C405   1.399       .  A
C404        F409   1.357       .  S
C405        C406   1.402       .  A
C405        H410   1.083       .  S
C406        C407   1.405       .  A
C407        C408   1.395       .  A
C407        F411   1.358       .  S
C408        H412   1.083       .  S
C413        C414   1.411       .  A
C413        C418   1.404       .  A
C413        H423   1.083       .  S
C414        C419   1.488       .  S
C414        C415   1.407       .  A
C415        C416   1.393       .  A
C416        C417   1.402       .  A
C417       C1012   1.473       .  S
C417        C418   1.404       .  A
C418       F1054   1.357       .  S
C419        C424   1.410       .  A
C419        C428   1.400       .  A
F422       C1050   1.357       .  S
C424        C425   1.402       .  A
C424        F429   1.357       .  S
C425        C426   1.406       .  A
C425        H430   1.083       .  S
C426        C427   1.415       .  A
C427        C428   1.394       .  A
C427        F431   1.357       .  S
C428        H432   1.083       .  S
C433        C434   1.400       .  A
C433        C438   1.399       .  A
C433        H443   1.079       .  S
C434        C439   1.490       .  S
C434        C435   1.411       .  A
C435        C436   1.406       .  A
C435        F440   1.358       .  S
C436        C437   1.406       .  A
C436        H441   1.083       .  S
C437        C438   1.409       .  A
C438        F442   1.356       .  S
C439        C444   1.402       .  A
C439        C448   1.409       .  A
C444        C445   1.396       .  A
C444        F449   1.357       .  S
C445        C446   1.410       .  A
C445        H450   1.084       .  S
C446        C447   1.410       .  A
C447        C448   1.406       .  A
C448        H452   1.085       .  S
C453        C454   1.407       .  A
C453        C458   1.401       .  A
C453        H463   1.081       .  S
C454        C459   1.490       .  S
C454        C455   1.407       .  A
C455        C456   1.395       .  A
C455        F460   1.358       .  S
C456        C457   1.408       .  A
C456        H461   1.082       .  S
C457        C458   1.409       .  A
C458        F462   1.356       .  S
C459        C464   1.407       .  A
C459        C468   1.406       .  A
C464        C465   1.399       .  A
C464        F469   1.357       .  S
C465        C466   1.408       .  A
C465        H470   1.082       .  S
C466        C467   1.409       .  A
C467        C468   1.397       .  A
C467        F471   1.357       .  S
C468        H472   1.082       .  S
C473        C474   1.402       .  A
C473        C478   1.396       .  A
C473        H483   1.081       .  S
C474        C479   1.482       .  S
C474        C475   1.406       .  A
C475        C476   1.401       .  A
C475        F480   1.357       .  S
C476        C477   1.407       .  A
C476        H481   1.082       .  S
C477        C986   1.480       .  S
C477        C478   1.408       .  A
C478       F1114   1.358       .  S
C479        C484   1.403       .  A
C479        C488   1.403       .  A
F482       C1110   1.353       .  S
C484        C485   1.399       .  A
C484        F489   1.357       .  S
C485        C486   1.410       .  A
C485        H490   1.081       .  S
C486        C487   1.412       .  A
C487        C488   1.400       .  A
C487        F491   1.356       .  S
C488        H492   1.082       .  S
C493        C494   1.407       .  A
C493        C498   1.401       .  A
C493        H503   1.083       .  S
C494        C499   1.489       .  S
C494        C495   1.408       .  A
C495        C496   1.396       .  A
C495        F500   1.357       .  S
C496        C497   1.402       .  A
C496        H501   1.083       .  S
C497        C498   1.407       .  A
C498        F502   1.358       .  S
C499        C504   1.407       .  A
C499        C508   1.405       .  A
C504        C505   1.399       .  A
C504        F509   1.358       .  S
C505        C506   1.409       .  A
C505        H510   1.083       .  S
C506        C507   1.409       .  A
C507        C508   1.398       .  A
C507        F511   1.356       .  S
C508        H512   1.083       .  S
C513        C514   1.405       .  A
C513        C518   1.402       .  A
C513        H523   1.083       .  S
C514        C519   1.488       .  S
C514        C515   1.405       .  A
C515        C516   1.402       .  A
C515        F520   1.358       .  S
C516        C517   1.410       .  A
C516        H521   1.083       .  S
C517        C518   1.409       .  A
C518        F522   1.357       .  S
C519        C524   1.405       .  A
C519        C528   1.408       .  A
C524        C525   1.397       .  A
C524        F529   1.358       .  S
C525        C526   1.403       .  A
C525        H530   1.082       .  S
C526        C527   1.407       .  A
C527        C528   1.408       .  A
C527        F531   1.356       .  S
C528        H532   1.082       .  S
C533        C534   1.398       .  A
C533        C538   1.394       .  A
C533        H543   1.078       .  S
C534        C539   1.479       .  S
C534        C535   1.406       .  A
C535        C536   1.403       .  A
C535        F540   1.358       .  S
C536        C537   1.409       .  A
C536        H541   1.081       .  S
C537        C538   1.412       .  A
C538        F542   1.357       .  S
C539        C544   1.403       .  A
C539        C548   1.402       .  A
C544        C545   1.400       .  A
C544        F549   1.357       .  S
C545        C546   1.409       .  A
C545        H550   1.085       .  S
C546        C547   1.410       .  A
C547        C548   1.397       .  A
C547        F551   1.357       .  S
C548        H552   1.085       .  S
C553        C554   1.399       .  A
C553        C558   1.398       .  A
C553        H563   1.084       .  S
C554        C559   1.482       .  S
C554        C555   1.405       .  A
C555        C556   1.405       .  A
C555        F560   1.357       .  S
C556        C557   1.409       .  A
C556        H561   1.083       .  S
C557        C558   1.415       .  A
C558        F562   1.357       .  S
C559        C564   1.405       .  A
C559        C568   1.402       .  A
C564        C565   1.401       .  A
C564        F569   1.358       .  S
C565        C566   1.407       .  A
C565        H570   1.080       .  S
C566        C567   1.411       .  A
C567        C568   1.403       .  A
C567        F571   1.357       .  S
C568        H572   1.081       .  S
C573        C574   1.407       .  A
C573        C578   1.400       .  A
C573        H583   1.083       .  S
C574        C579   1.490       .  S
C575        C576   1.398       .  A
C575        F580   1.358       .  S
C576        H581   1.084       .  S
C577        C578   1.407       .  A
C578        F582   1.357       .  S
C579        C584   1.413       .  A
C579        C588   1.405       .  A
C584        C585   1.402       .  A
C585        C586   1.400       .  A
C586        C587   1.403       .  A
C587        C588   1.393       .  A
C587        F591   1.358       .  S
C588        H592   1.082       .  S
C593        C594   1.405       .  A
C593        C598   1.396       .  A
C593        H603   1.083       .  S
C594        C599   1.489       .  S
C594        C595   1.407       .  A
C595        C596   1.400       .  A
C595        F600   1.357       .  S
C596        C597   1.409       .  A
C596        H601   1.083       .  S
C597        C598   1.409       .  A
C598        F602   1.357       .  S
C599        C604   1.406       .  A
C599        C608   1.407       .  A
C604        C605   1.391       .  A
C604        F609   1.356       .  S
C605        C606   1.406       .  A
C605        H610   1.084       .  S
C606        C607   1.409       .  A
C607        C608   1.405       .  A
C607        F611   1.356       .  S
C613        C614   1.405       .  A
C613        C618   1.397       .  A
C613        H623   1.081       .  S
C614        C619   1.486       .  S
C614        C615   1.409       .  A
C615        C616   1.398       .  A
C615        F620   1.358       .  S
C616        C617   1.404       .  A
C616        H621   1.082       .  S
C617        C618   1.408       .  A
C618        F622   1.358       .  S
C619        C624   1.407       .  A
C619        C628   1.404       .  A
C625        H630   1.082   1_554  S
C626        C627   1.411       .  A
C627        C628   1.398       .  A
C627        F631   1.357       .  S
C628        H632   1.083       .  S
C633        N634   1.354       .  A
C633        N638   1.355       .  A
C633        C942   1.480       .  S
N634        C635   1.357       .  A
C635        N636   1.360       .  A
C635        C913   1.483       .  S
N636        C637   1.360       .  A
C637        N638   1.358       .  A
C637        C893   1.483       .  S
C639        N640   1.365       .  A
C639        N644   1.358       .  A
C639        C873   1.482       .  S
N640        C641   1.364       .  A
C641        N642   1.358       .  A
C641        C833   1.493       .  S
N642        C643   1.355       .  A
C643        N644   1.355       .  A
C643        C862   1.481       .  S
C645        N646   1.360       .  A
C645        N650   1.360       .  A
C645        C802   1.491       .  S
N646        C647   1.360       .  A
C647        N648   1.359       .  A
C647        C822   1.488       .  S
N648        C649   1.358       .  A
C649        N650   1.359       .  A
C649        C782   1.489       .  S
C651        N652   1.364       .  A
C651        N656   1.355       .  A
C651        C742   1.488       .  S
N652        C653   1.365       .  A
C653        N654   1.361       .  A
C653        C762   1.491       .  S
N654        C655   1.357       .  A
C655        N656   1.352       .  A
C655        C713   1.485       .  S
C657        C933   1.478       .  S
C657        O672   1.262       .  A
C657        O659   1.260       .  A
Tb658       O680   2.347       .  S
Tb658      O1938   2.348       .  S
Tb658       O669   2.327       .  S
Tb658       O662   2.358       .  S
Tb658      O1946   2.377       .  S
Tb658       O679   2.383       .  S
O659       Tb663   2.358       .  S
O660        C671   1.263   1_545  A
C661        C773   1.490       .  S
C661        O666   1.272       .  A
C661        O682   1.270       .  A
O662        C678   1.261       .  A
Tb663       O667   2.331       .  S
Tb663       O672   2.355       .  S
Tb663       O666   2.357       .  S
Tb663       O675   2.312       .  S
O665       C1932   1.267   1_455  A
O667        C677   1.273   1_554  A
C668        C922   1.483       .  S
C668       O1929   1.265       .  A
C668        O681   1.271       .  A
O669       C1940   1.263       .  A
C670        O679   1.263       .  A
C671        C813   1.479       .  S
C671        O673   1.262       .  A
O674        C677   1.278   1_654  A
O674      Tb1922   2.353       .  S
O675        C676   1.265       .  A
C676        C703   1.451       .  S
C676       O1933   1.264   1_455  A
C677       C1018   1.460       .  S
C678        C902   1.466       .  S
C678        O680   1.259       .  A
O682      Tb1922   2.349   1_455  S
C683        C882   1.483       .  S
C683        O698   1.260       .  A
C683        O685   1.262       .  A
Tb684       O706   2.362       .  S
Tb684      O1964   2.351       .  S
Tb684       O695   2.357       .  S
Tb684       O688   2.352       .  S
Tb684      O1972   2.336       .  S
Tb684       O705   2.346       .  S
O685       Tb689   2.357       .  S
O686        C697   1.262       .  A
C687        C722   1.469       .  S
C687        O692   1.272       .  A
C687        O708   1.265       .  A
O688        C704   1.264       .  A
Tb689       O693   2.316       .  S
Tb689       O698   2.362       .  S
Tb689       O692   2.354       .  S
Tb689       O701   2.337       .  S
O691       C1958   1.268       .  A
O693        C703   1.267       .  A
C694        C853   1.485       .  S
C694       O1955   1.269       .  A
C694        O707   1.267       .  A
O695       C1966   1.276       .  A
C696        O705   1.262       .  A
C697        C753   1.483       .  S
C697        O699   1.260       .  A
O700        C703   1.269   1_655  A
O700      Tb1948   2.338       .  S
O701        C702   1.272       .  A
C702        C993   1.462       .  S
C702       O1959   1.270       .  A
C704        C842   1.484       .  S
C704        O706   1.264       .  A
O708      Tb1948   2.333   1_455  S
C709        C710   1.404       .  A
C709        C714   1.396       .  A
C709       H1035   1.083       .  S
C710        C715   1.492       .  S
C710        C711   1.412       .  A
C711        C712   1.397       .  A
C711        F716   1.357       .  S
C712        C713   1.404       .  A
C712        H717   1.084       .  S
C713        C714   1.411       .  A
C714       F1034   1.357       .  S
C715        C720   1.414       .  A
C715        C724   1.407       .  A
F718       C1030   1.357       .  S
H719       C1025   1.085       .  S
C720        C721   1.402       .  A
C720        F725   1.358       .  S
C721        C722   1.401       .  A
C721        H726   1.082       .  S
C722        C723   1.402       .  A
C723        C724   1.396       .  A
C723        F727   1.357       .  S
C724        H728   1.081       .  S
C729        C730   1.406       .  A
C729        C734   1.400       .  A
C729        H739   1.080       .  S
C730        C735   1.478       .  S
C730        C731   1.404       .  A
C731        C732   1.394       .  A
C731       F1052   1.358       .  S
C732        C733   1.405       .  A
C732       H1053   1.083       .  S
C733        C734   1.404       .  A
C735        C740   1.407       .  A
C735        C744   1.397       .  A
F736       C1047   1.358       .  S
H737       C1048   1.080   1_545  S
C740        C741   1.402       .  A
C740        F745   1.357       .  S
C741        C742   1.407       .  A
C741        H746   1.083       .  S
C742        C743   1.414       .  A
C743        C744   1.393       .  A
C743        F747   1.356       .  S
C744        H748   1.084       .  S
C749        C750   1.403       .  A
C749        C754   1.403       .  A
C749        H759   1.084       .  S
C750        C755   1.482       .  S
C750        C751   1.405       .  A
C751        C752   1.400       .  A
C751        F756   1.357       .  S
C752        C753   1.405       .  A
C752        H757   1.084       .  S
C753        C754   1.410       .  A
C754        F758   1.357       .  S
C755        C760   1.402       .  A
C755        C764   1.403       .  A
C760        C761   1.400       .  A
C760        F765   1.357       .  S
C761        C762   1.411       .  A
C761        H766   1.084       .  S
C762        C763   1.410       .  A
C763        C764   1.401       .  A
C763       F1083   1.357       .  S
C764        H768   1.085       .  S
F767       C1079   1.357       .  S
C769        C770   1.405       .  A
C769        C774   1.401       .  A
C769        H779   1.075       .  S
C770        C775   1.488       .  S
C770        C771   1.406       .  A
C771        C772   1.398       .  A
C771        F776   1.358       .  S
C772        C773   1.408       .  A
C772        H777   1.081       .  S
C773        C774   1.411       .  A
C774        F778   1.358       .  S
C775        C780   1.406       .  A
C775        C784   1.405       .  A
C780        C781   1.400       .  A
C780        F785   1.357       .  S
C781        C782   1.408       .  A
C781        H786   1.082       .  S
C782        C783   1.410       .  A
C783        C784   1.399       .  A
C783        F787   1.357       .  S
C784        H788   1.082       .  S
C789        C790   1.405       .  A
C789        C794   1.399       .  A
C789        H799   1.082       .  S
C790        C795   1.488       .  S
C790        C791   1.408       .  A
C791        C792   1.400       .  A
C791        F796   1.357       .  S
C792        C793   1.405       .  A
C792        H797   1.082       .  S
C793        C794   1.408       .  A
C795        C800   1.406       .  A
C795        C804   1.405       .  A
C800        C801   1.398       .  A
C800        F805   1.357       .  S
C801        C802   1.408       .  A
C801        H806   1.080       .  S
C802        C803   1.411       .  A
C803        C804   1.400       .  A
C803        F807   1.357       .  S
C804        H808   1.082       .  S
C809        C810   1.406       .  A
C809        C814   1.401       .  A
C809        H819   1.083       .  S
C810        C815   1.485       .  S
C810        C811   1.406       .  A
C811        C812   1.396       .  A
C811        F816   1.357       .  S
C812        C813   1.404       .  A
C812        H817   1.083       .  S
C813        C814   1.408       .  A
C814        F818   1.358       .  S
C815        C820   1.405       .  A
C815        C824   1.404       .  A
C820        C821   1.399       .  A
C820        F825   1.357       .  S
C821        C822   1.409       .  A
C821        H826   1.083       .  S
C822        C823   1.410       .  A
C823        C824   1.398       .  A
C823        F827   1.357       .  S
C824        H828   1.084       .  S
C829        C830   1.404       .  A
C829        C834   1.405       .  A
C829        H839   1.084       .  S
C830        C835   1.480       .  S
C830        C831   1.400       .  A
C831        C832   1.396       .  A
C831        F836   1.357       .  S
C832        C833   1.410       .  A
C832        H837   1.083       .  S
C833        C834   1.412       .  A
C834        F838   1.357       .  S
C835        C840   1.404       .  A
C835        C844   1.402       .  A
C840        C841   1.398       .  A
C840        F845   1.357       .  S
C841        C842   1.404       .  A
C841        H846   1.083       .  S
C842        C843   1.410       .  A
C843        C844   1.403       .  A
C843        F847   1.356       .  S
C844        H848   1.083       .  S
C849        C850   1.399       .  A
C849        C854   1.395       .  A
C849        H859   1.083       .  S
C850        C855   1.474       .  S
C850        C851   1.404       .  A
C851        C852   1.401       .  A
C851        F856   1.358       .  S
C852        C853   1.410       .  A
C852        H857   1.083       .  S
C853        C854   1.411       .  A
C854        F858   1.357       .  S
C855        C860   1.404       .  A
C855        C864   1.400       .  A
C860        C861   1.400       .  A
C860        F865   1.357       .  S
C861        C862   1.408       .  A
C861        H866   1.085       .  S
C862        C863   1.410       .  A
C863        C864   1.394       .  A
C863        F867   1.357       .  S
C864        H868   1.085       .  S
C869        C870   1.400       .  A
C869        C874   1.398       .  A
C869        H879   1.084       .  S
C870        C875   1.478       .  S
C870        C871   1.406       .  A
C871        C872   1.399       .  A
C871        F876   1.358       .  S
C872        C873   1.405       .  A
C872        H877   1.083       .  S
C873        C874   1.411       .  A
C874        F878   1.357       .  S
C875        C880   1.404       .  A
C875        C884   1.403       .  A
C880        C881   1.396       .  A
C880        F885   1.358       .  S
C881        C882   1.404       .  A
C881        H886   1.082       .  S
C882        C883   1.411       .  A
C883        C884   1.402       .  A
C883        F887   1.356       .  S
C884        H888   1.083       .  S
C889        C890   1.406       .  A
C889        C894   1.400       .  A
C889        H899   1.083       .  S
C890        C895   1.488       .  S
C890       C1207   1.408       .  A
C891       C1206   1.404       .  A
C891        C892   1.401       .  A
C891        F896   1.358       .  S
C892       C1209   1.409       .  A
C892        H897   1.083       .  S
C893       C1208   1.404       .  A
C893        C894   1.409       .  A
C894        F898   1.357       .  S
C895        C900   1.412       .  A
C895        C904   1.405       .  A
C900        C901   1.401       .  A
C900       F1221   1.357       .  S
C901        C902   1.401       .  A
C901       H1222   1.084       .  S
C902        C903   1.403       .  A
C903        C904   1.393       .  A
C903        F907   1.358       .  S
C904        H908   1.083       .  S
F905       C1216   1.354       .  S
H906       C1217   1.083       .  S
C909        C910   1.406       .  A
C909        C914   1.398       .  A
C909        H919   1.082       .  S
C910        C915   1.485       .  S
C910        C911   1.405       .  A
C911        C912   1.394       .  A
C911        F916   1.357       .  S
C912        C913   1.407       .  A
C912        H917   1.083       .  S
C913        C914   1.409       .  A
C914        F918   1.357       .  S
C915        C920   1.405       .  A
C915        C924   1.408       .  A
C920        C921   1.392       .  A
C920        F925   1.357       .  S
C921        C922   1.408       .  A
C921        H926   1.083       .  S
C922        C923   1.407       .  A
C923        C924   1.400       .  A
C923        F927   1.357       .  S
C924       H1244   1.082       .  S
H928       C1240   1.084       .  S
C929        C930   1.405       .  A
C929        C934   1.401       .  A
C929        H939   1.082       .  S
C930        C935   1.482       .  S
C930        C931   1.405       .  A
C931        C932   1.395       .  A
C931        F936   1.357       .  S
C932        C933   1.403       .  A
C932        H937   1.082       .  S
C933        C934   1.408       .  A
C934        F938   1.358       .  S
C935        C940   1.405       .  A
C935        C944   1.404       .  A
C940       C1257   1.398       .  A
C940       F1261   1.357       .  S
C941       C1256   1.397       .  A
C941       C1258   1.411       .  A
C941        H946   1.082       .  S
C942       C1257   1.407       .  A
C942        C943   1.408       .  A
C943        C944   1.396       .  A
C943        F947   1.357       .  S
C944        H948   1.083       .  S
F945       C1256   1.358       .  S
C949        N950   1.357       .  A
C949        N954   1.362       .  A
C949       C1258   1.492       .  S
N950        C951   1.357       .  A
C951        N952   1.360       .  A
C951       C1229   1.489       .  S
N952        C953   1.362       .  A
C953        N954   1.364       .  A
C953       C1209   1.493       .  S
C955        N956   1.358       .  A
C955        N960   1.359       .  A
C955       C1189   1.493       .  S
N956        C957   1.359       .  A
C957        N958   1.362       .  A
C957       C1149   1.492       .  S
N958        C959   1.362       .  A
C959        N960   1.361       .  A
C959       C1178   1.489       .  S
C961        N962   1.368       .  A
C961        N966   1.361       .  A
C961       C1118   1.496       .  S
N962        C963   1.366       .  A
C963        N964   1.357       .  A
C963       C1138   1.494       .  S
N964        C965   1.353       .  A
C965        N966   1.355       .  A
C965       C1098   1.483       .  S
C967        N968   1.360       .  A
C967        N972   1.354       .  A
C967       C1058   1.476       .  S
N968        C969   1.359       .  A
C969        N970   1.354       .  A
C969       C1078   1.477       .  S
N970        C971   1.351       .  A
C971        N972   1.352       .  A
C971       C1029   1.464       .  S
C973       C1249   1.478       .  S
C973        O988   1.264       .  A
C973        O975   1.264       .  A
Tb974       O996   2.372       .  S
Tb974      O2254   2.333       .  S
Tb974       O985   2.353       .  S
Tb974       O978   2.355       .  S
Tb974      O2262   2.350       .  S
Tb974       O995   2.348       .  S
O975       Tb979   2.356       .  S
O976        C987   1.265       .  A
C977       C1089   1.488       .  S
C977        O982   1.275       .  A
C977        O998   1.270       .  A
O978        C994   1.260       .  A
Tb979       O983   2.309       .  S
Tb979       O988   2.347       .  S
Tb979       O982   2.362       .  S
Tb979       O991   2.320       .  S
O981       C2248   1.277       .  A
O983        C993   1.263       .  A
C984       C1238   1.488       .  S
C984       O2245   1.275       .  A
C984        O997   1.274       .  A
O985       C2256   1.275       .  A
C986        O995   1.262       .  A
C987       C1129   1.480       .  S
C987        O989   1.263       .  A
O990        C993   1.268       .  A
O990      Tb2238   2.359   1_455  S
O991        C992   1.272       .  A
C992       C1019   1.462       .  S
C992       O2249   1.280   1_455  A
C994       C1218   1.486       .  S
C994        O996   1.262       .  A
O998      Tb2238   2.336   1_455  S
C999       C1198   1.476       .  S
C999       O1014   1.262       .  A
C999       O1001   1.262       .  A
Tb1000     O1022   2.362       .  S
Tb1000     O2280   2.359       .  S
Tb1000     O1011   2.348       .  S
Tb1000     O1004   2.362       .  S
Tb1000     O2288   2.328       .  S
Tb1000     O1021   2.344       .  S
O1001     Tb1005   2.361       .  S
O1002      C1013   1.265   1_545  A
C1003      C1038   1.451       .  S
C1003      O1008   1.267       .  A
C1003      O1024   1.263       .  A
O1004      C1020   1.262       .  A
Tb1005     O1009   2.347       .  S
Tb1005     O1014   2.359       .  S
Tb1005     O1008   2.337       .  S
Tb1005     O1017   2.340       .  S
O1007      C2274   1.272   1_455  A
O1009      C1019   1.277       .  A
C1010      C1169   1.490       .  S
C1010      O2271   1.273       .  A
C1010      O1023   1.268       .  A
O1011      C2282   1.275       .  A
C1012      O1021   1.255       .  A
C1013      C1069   1.471       .  S
C1013      O1015   1.261       .  A
O1016      C1019   1.275   1_655  A
O1016     Tb2264   2.343       .  S
O1017      C1018   1.274       .  A
C1018      O2275   1.272   1_455  A
C1020      C1158   1.481       .  S
C1020      O1022   1.261       .  A
O1024     Tb2264   2.311   1_455  S
C1025      C1026   1.400       .  A
C1025      C1030   1.390       .  A
C1026      C1031   1.464       .  S
C1026      C1027   1.404       .  A
C1027      C1028   1.390       .  A
C1027      F1032   1.357       .  S
C1028      C1029   1.403       .  A
C1028      H1033   1.085       .  S
C1029      C1030   1.406       .  A
C1031      C1036   1.405       .  A
C1031      C1040   1.401       .  A
C1036      C1037   1.391       .  A
C1036      F1041   1.357       .  S
C1037      C1038   1.399       .  A
C1037      H1042   1.083       .  S
C1038      C1039   1.402       .  A
C1039      C1040   1.389       .  A
C1039      F1043   1.356       .  S
C1040      H1044   1.083       .  S
C1045      C1046   1.402       .  A
C1045      C1050   1.395       .  A
C1045      H1055   1.083       .  S
C1046      C1051   1.469       .  S
C1046      C1047   1.402       .  A
C1047      C1048   1.394       .  A
C1048      C1049   1.405       .  A
C1049      C1050   1.406       .  A
C1051      C1056   1.404       .  A
C1051      C1060   1.398       .  A
C1056      C1057   1.395       .  A
C1056      F1061   1.357       .  S
C1057      C1058   1.405       .  A
C1057      H1062   1.083       .  S
C1058      C1059   1.411       .  A
C1059      C1060   1.393       .  A
C1059      F1063   1.357       .  S
C1060      H1064   1.084       .  S
C1065      C1066   1.399       .  A
C1065      C1070   1.393       .  A
C1065      H1075   1.083       .  S
C1066      C1071   1.468       .  S
C1066      C1067   1.403       .  A
C1067      C1068   1.395       .  A
C1067      F1072   1.358       .  S
C1068      C1069   1.404       .  A
C1068      H1073   1.084       .  S
C1069      C1070   1.409       .  A
C1070      F1074   1.357       .  S
C1071      C1076   1.400       .  A
C1071      C1080   1.402       .  A
C1076      C1077   1.392       .  A
C1076      F1081   1.358       .  S
C1077      C1078   1.408       .  A
C1077      H1082   1.084       .  S
C1078      C1079   1.408       .  A
C1079      C1080   1.395       .  A
C1080      H1084   1.085       .  S
C1085      C1086   1.403       .  A
C1085      C1090   1.399       .  A
C1085      H1095   1.083       .  S
C1086      C1091   1.482       .  S
C1086      C1087   1.405       .  A
C1087      C1088   1.399       .  A
C1087      F1092   1.357       .  S
C1088      C1089   1.407       .  A
C1088      H1093   1.083       .  S
C1089      C1090   1.413       .  A
C1090      F1094   1.358       .  S
C1091      C1096   1.404       .  A
C1091      C1100   1.405       .  A
C1096      C1097   1.396       .  A
C1096      F1101   1.358       .  S
C1097      C1098   1.407       .  A
C1097      H1102   1.083       .  S
C1098      C1099   1.409       .  A
C1099      C1100   1.401       .  A
C1099      F1103   1.357       .  S
C1100      H1104   1.083       .  S
C1105      C1106   1.402       .  A
C1105      C1110   1.404       .  A
C1105      H1115   1.083       .  S
C1106      C1111   1.482       .  S
C1106      C1107   1.405       .  A
C1107      C1108   1.399       .  A
C1107      F1112   1.358       .  S
C1108      C1109   1.406       .  A
C1108      H1113   1.083       .  S
C1109      C1110   1.410       .  A
C1111      C1116   1.401       .  A
C1111      C1120   1.404       .  A
C1116      C1117   1.397       .  A
C1116      F1121   1.358       .  S
C1117      C1118   1.411       .  A
C1117      H1122   1.081       .  S
C1118      C1119   1.412       .  A
C1119      C1120   1.406       .  A
C1119      F1123   1.357       .  S
C1120      H1124   1.082       .  S
C1125      C1126   1.405       .  A
C1125      C1130   1.399       .  A
C1125      H1135   1.084       .  S
C1126      C1131   1.484       .  S
C1126      C1127   1.405       .  A
C1127      C1128   1.403       .  A
C1127      F1132   1.357       .  S
C1128      C1129   1.407       .  A
C1128      H1133   1.083       .  S
C1129      C1130   1.406       .  A
C1130      F1134   1.358       .  S
C1131      C1136   1.401       .  A
C1131      C1140   1.406       .  A
C1136      C1137   1.394       .  A
C1136      F1141   1.358       .  S
C1137      C1138   1.410       .  A
C1137      H1142   1.083       .  S
C1138      C1139   1.412       .  A
C1139      C1140   1.407       .  A
C1139      F1143   1.357       .  S
C1140      H1144   1.084       .  S
C1145      C1146   1.404       .  A
C1145      C1150   1.399       .  A
C1145      H1155   1.083       .  S
C1146      C1151   1.493       .  S
C1146      C1147   1.410       .  A
C1147      C1148   1.401       .  A
C1147      F1152   1.357       .  S
C1148      C1149   1.407       .  A
C1148      H1153   1.083       .  S
C1149      C1150   1.413       .  A
C1150      F1154   1.357       .  S
C1151      C1156   1.410       .  A
C1151      C1160   1.407       .  A
C1156      C1157   1.399       .  A
C1156      F1161   1.355       .  S
C1157      C1158   1.404       .  A
C1157      H1162   1.085       .  S
C1158      C1159   1.407       .  A
C1159      C1160   1.400       .  A
C1159      F1163   1.357       .  S
C1160      H1164   1.084       .  S
C1165      C1166   1.406       .  A
C1165      C1170   1.402       .  A
C1165      H1175   1.082       .  S
C1166      C1171   1.491       .  S
C1166      C1167   1.408       .  A
C1167      C1168   1.398       .  A
C1167      F1172   1.357       .  S
C1168      C1169   1.409       .  A
C1168      H1173   1.082       .  S
C1169      C1170   1.408       .  A
C1170      F1174   1.355       .  S
C1171      C1176   1.407       .  A
C1171      C1180   1.407       .  A
C1176      C1177   1.397       .  A
C1176      F1181   1.357       .  S
C1177      C1178   1.406       .  A
C1177      H1182   1.084       .  S
C1178      C1179   1.410       .  A
C1179      C1180   1.403       .  A
C1179      F1183   1.357       .  S
C1180      H1184   1.085       .  S
C1185      C1186   1.404       .  A
C1185      C1190   1.402       .  A
C1185      H1195   1.083       .  S
C1186      C1191   1.488       .  S
C1186      C1187   1.406       .  A
C1187      C1188   1.399       .  A
C1187      F1192   1.357       .  S
C1188      C1189   1.409       .  A
C1188      H1193   1.082       .  S
C1189      C1190   1.412       .  A
C1190      F1194   1.357       .  S
C1191      C1196   1.408       .  A
C1191      C1200   1.406       .  A
C1196      C1197   1.402       .  A
C1196      F1201   1.356       .  S
C1197      C1198   1.403       .  A
C1197      H1202   1.084       .  S
C1198      C1199   1.405       .  A
C1199      C1200   1.399       .  A
C1199      F1203   1.358       .  S
C1200      H1204   1.084       .  S
C1205      C1206   1.402       .  A
C1205      C1210   1.401       .  A
C1205      H1215   1.084       .  S
C1206      C1211   1.483       .  S
C1207      C1208   1.393       .  A
C1207      F1212   1.356       .  S
C1208      H1213   1.084       .  S
C1209      C1210   1.413       .  A
C1210      F1214   1.357       .  S
C1211      C1216   1.403       .  A
C1211      C1220   1.402       .  A
C1216      C1217   1.403       .  A
C1217      C1218   1.407       .  A
C1218      C1219   1.411       .  A
C1219      C1220   1.400       .  A
C1219      F1223   1.357       .  S
C1220      H1224   1.084       .  S
C1225      C1226   1.407       .  A
C1225      C1230   1.403       .  A
C1225      H1235   1.083       .  S
C1226      C1231   1.490       .  S
C1226      C1227   1.407       .  A
C1227      C1228   1.396       .  A
C1227      F1232   1.357       .  S
C1228      C1229   1.407       .  A
C1228      H1233   1.083       .  S
C1229      C1230   1.410       .  A
C1230      F1234   1.357       .  S
C1231      C1236   1.409       .  A
C1231      C1240   1.405       .  A
C1236      C1237   1.400       .  A
C1236      F1241   1.358       .  S
C1237      C1238   1.407       .  A
C1237      H1242   1.084       .  S
C1238      C1239   1.410       .  A
C1239      C1240   1.400       .  A
C1239      F1243   1.357       .  S
C1245      C1246   1.404       .  A
C1245      C1250   1.401       .  A
C1245      H1255   1.084       .  S
C1246      C1251   1.477       .  S
C1246      C1247   1.402       .  A
C1247      C1248   1.396       .  A
C1247      F1252   1.357       .  S
C1248      C1249   1.405       .  A
C1248      H1253   1.082       .  S
C1249      C1250   1.408       .  A
C1250      F1254   1.358       .  S
C1251      C1256   1.401       .  A
C1251      C1260   1.403       .  A
C1257      H1262   1.083       .  S
C1258      C1259   1.412       .  A
C1259      C1260   1.402       .  A
C1259      F1263   1.357       .  S
C1260      H1264   1.083       .  S
C1265      N1266   1.357       .  A
C1265      N1270   1.363       .  A
C1265      C1574   1.486       .  S
N1266      C1267   1.357       .  A
C1267      N1268   1.356       .  A
C1267      C1545   1.485       .  S
N1268      C1269   1.359       .  A
C1269      N1270   1.365       .  A
C1269      C1525   1.486       .  S
C1271      N1272   1.365       .  A
C1271      N1276   1.362       .  A
C1271      C1505   1.497       .  S
N1272      C1273   1.364       .  A
C1273      N1274   1.358       .  A
C1273      C1465   1.491       .  S
N1274      C1275   1.355       .  A
C1275      N1276   1.360       .  A
C1275      C1494   1.490       .  S
C1277      N1278   1.369       .  A
C1277      N1282   1.358       .  A
C1277      C1434   1.492       .  S
N1278      C1279   1.368       .  A
C1279      N1280   1.358       .  A
C1279      C1454   1.494       .  S
N1280      C1281   1.353       .  A
C1281      N1282   1.351       .  A
C1281      C1414   1.484       .  S
C1283      N1284   1.363       .  A
C1283      N1288   1.356       .  A
C1283      C1374   1.482       .  S
N1284      C1285   1.361       .  A
C1285      N1286   1.353       .  A
C1285      C1394   1.480       .  S
N1286      C1287   1.350       .  A
C1287      N1288   1.351       .  A
C1287      C1345   1.469       .  S
C1289      C1565   1.483       .  S
C1289      O1304   1.264       .  A
C1289      O1291   1.264       .  A
Tb1290     O1312   2.367       .  S
Tb1290     O1945   2.359   1_545  S
Tb1290     O1928   2.369   1_545  S
Tb1290     O1301   2.359       .  S
Tb1290     O1294   2.343       .  S
Tb1290     O1311   2.358       .  S
O1291     Tb1295   2.357       .  S
O1292      C1303   1.266       .  A
O1292     Tb1927   2.377       .  S
C1293      C1405   1.483       .  S
C1293      O1298   1.271       .  A
C1293      O1314   1.273       .  A
O1294      C1310   1.259       .  A
Tb1295     O1924   2.355       .  S
Tb1295     O1299   2.320       .  S
Tb1295     O1304   2.358       .  S
Tb1295     O1298   2.338       .  S
Tb1295     O1937   2.353   1_545  S
Tb1295     O1307   2.343       .  S
Tb1295     O1929   2.327   1_545  S
O1296      C1934   1.261       .  A
O1296     Tb1922   2.345       .  S
O1297     Tb1927   2.358       .  S
O1299      C1309   1.265       .  A
C1300      C1554   1.486       .  S
C1300      O1313   1.273       .  A
C1302      C2057   1.484       .  S
C1302      O1928   1.263       .  A
C1302      O1311   1.259   1_565  A
C1303      C1445   1.485       .  S
C1303      O1305   1.262       .  A
O1305     Tb1927   2.343       .  S
O1306      C1309   1.266       .  A
O1307      C1308   1.277       .  A
C1308      C1335   1.468       .  S
C1309      C1650   1.461   1_554  S
C1310      C1534   1.477       .  S
C1310      O1312   1.262       .  A
O1313     Tb1922   2.337       .  S
C1315      C1514   1.487       .  S
C1315      O1330   1.263       .  A
C1315      O1317   1.261       .  A
Tb1316     O1338   2.372       .  S
Tb1316     O1971   2.327   1_545  S
Tb1316     O1954   2.370   1_545  S
Tb1316     O1327   2.351       .  S
Tb1316     O1320   2.358       .  S
Tb1316     O1337   2.328   1_545  S
O1317     Tb1321   2.364       .  S
O1318      C1329   1.262       .  A
O1318     Tb1953   2.335       .  S
C1319      C1354   1.453       .  S
C1319      O1324   1.266       .  A
C1319      O1340   1.262       .  A
O1320      C1336   1.260       .  A
Tb1321     O1950   2.355   1_545  S
Tb1321     O1325   2.335       .  S
Tb1321     O1330   2.366       .  S
Tb1321     O1324   2.340       .  S
Tb1321     O1963   2.358   1_545  S
Tb1321     O1333   2.335   1_545  S
Tb1321     O1955   2.350   1_545  S
O1322      C1960   1.262       .  A
O1322     Tb1948   2.356       .  S
O1323     Tb1953   2.373       .  S
O1325      C1335   1.274       .  A
C1326      C1485   1.488       .  S
C1326      O1339   1.266       .  A
C1328      C1997   1.464       .  S
C1328      O1954   1.262       .  A
C1328      O1337   1.256       .  A
C1329      C1385   1.468       .  S
C1329      O1331   1.263       .  A
O1331     Tb1953   2.344       .  S
O1332      C1335   1.280       .  A
O1333      C1334   1.272   1_565  A
C1334      C1625   1.463       .  S
C1336      C1474   1.484       .  S
C1336      O1338   1.262       .  A
O1339     Tb1948   2.335       .  S
C1341      C1342   1.403       .  A
C1341      C1346   1.394       .  A
C1341      H1667   1.084       .  S
C1342      C1347   1.472       .  S
C1342      C1343   1.405       .  A
C1343      C1344   1.389       .  A
C1343      F1348   1.357       .  S
C1344      C1345   1.403       .  A
C1344      H1349   1.084       .  S
C1345      C1346   1.407       .  A
C1346      F1666   1.357       .  S
C1347      C1352   1.407       .  A
C1347      C1356   1.404       .  A
F1350      C1662   1.357       .  S
H1351      C1657   1.084       .  S
C1352      C1353   1.394       .  A
C1352      F1357   1.358       .  S
C1353      C1354   1.399       .  A
C1353      H1358   1.083       .  S
C1354      C1355   1.400       .  A
C1355      C1356   1.391       .  A
C1355      F1359   1.357       .  S
C1356      H1360   1.083       .  S
C1361      C1362   1.403       .  A
C1361      C1366   1.397       .  A
C1361      H1371   1.082       .  S
C1362      C1367   1.472       .  S
C1362      C1363   1.403       .  A
C1363      C1364   1.393       .  A
C1363      F1684   1.358       .  S
C1364      C1365   1.405       .  A
C1364      H1685   1.083       .  S
C1365      C1960   1.472       .  S
C1365      C1366   1.407       .  A
C1366      F2002   1.357       .  S
C1367      C1372   1.405       .  A
C1367      C1376   1.397       .  A
F1368      C1679   1.358       .  S
H1369      C1680   1.084       .  S
F1370      C1998   1.357       .  S
C1372      C1373   1.397       .  A
C1372      F1377   1.357       .  S
C1373      C1374   1.406       .  A
C1373      H1378   1.083       .  S
C1374      C1375   1.414       .  A
C1375      C1376   1.393       .  A
C1375      F1379   1.357       .  S
C1376      H1380   1.084       .  S
C1381      C1382   1.403       .  A
C1381      C1386   1.395       .  A
C1381      H1391   1.082       .  S
C1382      C1387   1.473       .  S
C1382      C1383   1.403       .  A
C1383      C1384   1.393       .  A
C1383      F1388   1.358       .  S
C1384      C1385   1.404       .  A
C1384      H1389   1.084       .  S
C1385      C1386   1.405       .  A
C1386      F1390   1.358       .  S
C1387      C1392   1.400       .  A
C1387      C1396   1.404       .  A
C1392      C1393   1.391       .  A
C1392      F1397   1.358       .  S
C1393      C1394   1.409       .  A
C1393      H1398   1.084       .  S
C1394      C1395   1.408       .  A
C1395      C1396   1.398       .  A
C1395      F1715   1.357       .  S
C1396      H1400   1.085       .  S
F1399      C1711   1.357       .  S
C1401      C1402   1.407       .  A
C1401      C1406   1.400       .  A
C1401      H1411   1.078       .  S
C1402      C1407   1.488       .  S
C1402      C1403   1.407       .  A
C1403      C1404   1.393       .  A
C1403      F1408   1.358       .  S
C1404      C1405   1.406       .  A
C1404      H1409   1.083       .  S
C1405      C1406   1.408       .  A
C1406      F1410   1.357       .  S
C1407      C1412   1.407       .  A
C1407      C1416   1.406       .  A
C1412      C1413   1.395       .  A
C1412      F1417   1.357       .  S
C1413      C1414   1.405       .  A
C1413      H1418   1.082       .  S
C1414      C1415   1.410       .  A
C1415      C1416   1.398       .  A
C1415      F1419   1.358       .  S
C1416      H1420   1.082       .  S
C1421      C1422   1.404       .  A
C1421      C1426   1.402       .  A
C1421      H1431   1.083       .  S
C1422      C1427   1.483       .  S
C1422      C1423   1.406       .  A
C1423      C1424   1.395       .  A
C1423      F1428   1.358       .  S
C1424      C1425   1.404       .  A
C1424      H1429   1.083       .  S
C1425      C1934   1.480       .  S
C1425      C1426   1.409       .  A
C1426      F2062   1.356       .  S
C1427      C1432   1.402       .  A
C1427      C1436   1.406       .  A
F1430      C2058   1.358   1_545  S
C1432      C1433   1.393       .  A
C1432      F1437   1.358       .  S
C1433      C1434   1.411       .  A
C1433      H1438   1.080       .  S
C1434      C1435   1.410       .  A
C1435      C1436   1.405       .  A
C1435      F1439   1.356       .  S
C1436      H1440   1.082       .  S
C1441      C1442   1.406       .  A
C1441      C1446   1.396       .  A
C1441      H1451   1.082       .  S
C1442      C1447   1.494       .  S
C1442      C1443   1.410       .  A
C1443      C1444   1.408       .  A
C1443      F1448   1.357       .  S
C1444      C1445   1.408       .  A
C1444      H1449   1.080       .  S
C1445      C1446   1.406       .  A
C1446      F1450   1.358       .  S
C1447      C1452   1.406       .  A
C1447      C1456   1.409       .  A
C1452      C1453   1.394       .  A
C1452      F1457   1.358       .  S
C1453      C1454   1.409       .  A
C1453      H1458   1.083       .  S
C1454      C1455   1.410       .  A
C1455      C1456   1.409       .  A
C1455      F1459   1.357       .  S
C1456      H1460   1.083       .  S
C1461      C1462   1.407       .  A
C1461      C1466   1.403       .  A
C1461      H1471   1.083       .  S
C1462      C1467   1.492       .  S
C1462      C1463   1.406       .  A
C1463      C1464   1.398       .  A
C1463      F1468   1.358       .  S
C1464      C1465   1.408       .  A
C1464      H1469   1.083       .  S
C1465      C1466   1.409       .  A
C1466      F1470   1.357       .  S
C1467      C1472   1.406       .  A
C1467      C1476   1.408       .  A
C1472      C1473   1.400       .  A
C1472      F1477   1.356       .  S
C1473      C1474   1.406       .  A
C1473      H1478   1.085       .  S
C1474      C1475   1.407       .  A
C1475      C1476   1.402       .  A
C1475      F1479   1.357       .  S
C1476      H1480   1.084       .  S
C1481      C1482   1.407       .  A
C1481      C1486   1.404       .  A
C1481      H1491   1.082       .  S
C1482      C1487   1.487       .  S
C1482      C1483   1.404       .  A
C1483      C1484   1.396       .  A
C1483      F1488   1.357       .  S
C1484      C1485   1.409       .  A
C1484      H1489   1.083       .  S
C1485      C1486   1.409       .  A
C1486      F1490   1.357       .  S
C1487      C1492   1.408       .  A
C1487      C1496   1.402       .  A
C1492      C1493   1.400       .  A
C1492      F1497   1.358       .  S
C1493      C1494   1.407       .  A
C1493      H1498   1.083       .  S
C1494      C1495   1.413       .  A
C1495      C1496   1.399       .  A
C1495      F1499   1.357       .  S
C1496      H1500   1.083       .  S
C1501      C1502   1.400       .  A
C1501      C1506   1.400       .  A
C1501      H1511   1.083       .  S
C1502      C1507   1.485       .  S
C1502      C1503   1.406       .  A
C1503      C1504   1.405       .  A
C1503      F1508   1.357       .  S
C1504      C1505   1.410       .  A
C1504      H1509   1.083       .  S
C1505      C1506   1.415       .  A
C1506      F1510   1.357       .  S
C1507      C1512   1.404       .  A
C1507      C1516   1.403       .  A
C1512      C1513   1.403       .  A
C1512      F1517   1.354       .  S
C1513      C1514   1.408       .  A
C1513      H1518   1.084       .  S
C1514      C1515   1.409       .  A
C1515      C1516   1.401       .  A
C1515      F1519   1.357       .  S
C1516      H1520   1.084       .  S
C1521      C1522   1.403       .  A
C1521      C1526   1.398       .  A
C1521      H1531   1.083       .  S
C1522      C1527   1.488   1_556  S
C1522      C1839   1.409   1_556  A
C1523      C1838   1.407       .  A
C1523      C1524   1.399       .  A
C1523      F1528   1.358       .  S
C1524      C1841   1.406       .  A
C1524      H1529   1.083       .  S
C1525      C1840   1.405       .  A
C1525      C1526   1.411       .  A
C1526      F1530   1.357       .  S
C1527      C1532   1.408   1_554  A
C1527      C1536   1.404       .  A
C1532      C1533   1.401   1_556  A
C1532      F1853   1.353       .  S
C1533      C1534   1.404       .  A
C1533      H1854   1.083   1_554  S
C1534      C1535   1.408       .  A
C1535      C1536   1.395       .  A
C1535      F1539   1.357       .  S
C1536      H1540   1.083       .  S
F1537      C1848   1.357       .  S
H1538      C1849   1.083       .  S
C1541      C1542   1.405       .  A
C1541      C1546   1.402       .  A
C1541      H1551   1.083       .  S
C1542      C1547   1.484   1_556  S
C1542      C1543   1.406   1_556  A
C1543      C1544   1.394   1_554  A
C1543      F1548   1.358       .  S
C1544      C1545   1.406       .  A
C1544      H1549   1.083       .  S
C1545      C1546   1.411       .  A
C1546      F1550   1.357       .  S
C1547      C1552   1.407       .  A
C1547      C1556   1.402   1_554  A
C1552      C1553   1.401       .  A
C1552      F1557   1.358       .  S
C1553      C1554   1.408       .  A
C1553      H1558   1.084       .  S
C1554      C1555   1.411       .  A
C1555      C1556   1.395   1_554  A
C1555      F1559   1.357   1_554  S
C1556      H1876   1.084       .  S
H1560      C1872   1.084       .  S
C1561      C1562   1.403       .  A
C1561      C1566   1.402       .  A
C1561      H1571   1.084       .  S
C1562      C1567   1.480       .  S
C1562      C1563   1.403   1_554  A
C1563      C1564   1.401   1_556  A
C1563      F1568   1.357       .  S
C1564      C1565   1.407       .  A
C1564      H1569   1.084   1_554  S
C1565      C1566   1.409       .  A
C1566      F1570   1.358       .  S
C1567      C1572   1.402   1_554  A
C1567      C1576   1.404       .  A
C1572      C1889   1.400       .  A
C1572      F1893   1.357       .  S
C1573      C1888   1.397       .  A
C1573      C1890   1.408       .  A
C1573      H1578   1.083       .  S
C1574      C1889   1.408       .  A
C1574      C1575   1.409   1_556  A
C1575      C1576   1.403       .  A
C1575      F1579   1.357       .  S
C1576      H1580   1.083       .  S
F1577      C1888   1.357       .  S
C1581      N1582   1.360       .  A
C1581      N1586   1.361       .  A
C1581      C1890   1.489       .  S
N1582      C1583   1.357       .  A
C1583      N1584   1.358       .  A
C1583      C1861   1.487       .  S
N1584      C1585   1.358       .  A
C1585      N1586   1.361       .  A
C1585      C1841   1.489       .  S
C1587      N1588   1.367       .  A
C1587      N1592   1.356       .  A
C1587      C1821   1.495       .  S
N1588      C1589   1.367       .  A
C1589      N1590   1.359       .  A
C1589      C1781   1.495       .  S
N1590      C1591   1.355       .  A
C1591      N1592   1.353       .  A
C1591      C1810   1.483       .  S
C1593      N1594   1.360       .  A
C1593      N1598   1.361       .  A
C1593      C1750   1.494       .  S
N1594      C1595   1.360       .  A
C1595      N1596   1.361       .  A
C1595      C1770   1.495       .  S
N1596      C1597   1.361       .  A
C1597      N1598   1.360       .  A
C1597      C1730   1.495       .  S
C1599      N1600   1.363       .  A
C1599      N1604   1.354       .  A
C1599      C1690   1.482       .  S
N1600      C1601   1.363       .  A
C1601      N1602   1.358       .  A
C1601      C1710   1.485       .  S
N1602      C1603   1.354       .  A
C1603      N1604   1.350       .  A
C1603      C1661   1.475       .  S
C1605      C1881   1.477       .  S
C1605      O1620   1.261       .  A
C1605      O1607   1.258       .  A
Tb1606     O1628   2.356       .  S
Tb1606     O2261   2.340   1_545  S
Tb1606     O2244   2.356   1_545  S
Tb1606     O1617   2.332   1_545  S
Tb1606     O1610   2.350       .  S
Tb1606     O1627   2.372   1_545  S
O1607     Tb1611   2.358       .  S
O1608      C1619   1.262       .  A
O1608     Tb2243   2.370       .  S
C1609      C1721   1.490       .  S
C1609      O1614   1.267       .  A
C1609      O1630   1.273       .  A
O1610      C1626   1.260       .  A
Tb1611     O2240   2.358   1_545  S
Tb1611     O1615   2.324   1_545  S
Tb1611     O1620   2.357       .  S
Tb1611     O1614   2.339       .  S
Tb1611     O2253   2.340   1_545  S
Tb1611     O1623   2.316       .  S
Tb1611     O2245   2.356   1_545  S
O1612      C2250   1.261       .  A
O1612     Tb2238   2.360       .  S
O1613     Tb2243   2.331       .  S
O1615      C1625   1.272   1_565  A
C1616      C1870   1.491       .  S
C1616      O1629   1.271       .  A
C1618      C2373   1.485       .  S
C1618      O2244   1.262       .  A
C1618      O1627   1.262       .  A
C1619      C1761   1.486       .  S
C1619      O1621   1.260       .  A
O1621     Tb2243   2.362       .  S
O1622      C1625   1.280       .  A
O1623      C1624   1.264       .  A
C1624      C1651   1.457       .  S
C1626      C1850   1.466       .  S
C1626      O1628   1.262       .  A
O1629     Tb2238   2.358       .  S
C1631      C1830   1.487       .  S
C1631      O1646   1.264       .  A
C1631      O1633   1.263       .  A
Tb1632     O1654   2.363       .  S
Tb1632     O2287   2.335   1_545  S
Tb1632     O2270   2.344   1_545  S
Tb1632     O1643   2.355   1_655  S
Tb1632     O1636   2.355       .  S
Tb1632     O1653   2.332       .  S
O1633     Tb1637   2.359       .  S
O1634      C1645   1.263       .  A
O1634     Tb2269   2.354       .  S
C1635      C1670   1.456       .  S
C1635      O1640   1.267       .  A
C1635      O1656   1.267       .  A
O1636      C1652   1.263       .  A
Tb1637     O2266   2.358       .  S
Tb1637     O1641   2.320       .  S
Tb1637     O1646   2.365       .  S
Tb1637     O1640   2.328       .  S
Tb1637     O2279   2.339   1_545  S
Tb1637     O1649   2.339       .  S
Tb1637     O2271   2.362   1_545  S
O1638      C2276   1.262       .  A
O1638     Tb2264   2.358       .  S
O1639     Tb2269   2.349       .  S
O1641      C1651   1.266       .  A
C1642      C1801   1.483       .  S
C1642      O1655   1.269       .  A
C1644      C2313   1.469       .  S
C1644      O2270   1.264       .  A
C1644      O1653   1.263   1_565  A
C1645      C1701   1.476       .  S
C1645      O1647   1.260       .  A
O1647     Tb2269   2.355       .  S
O1648      C1651   1.267   1_565  A
O1649      C1650   1.275       .  A
C1652      C1790   1.477       .  S
C1652      O1654   1.263       .  A
O1655     Tb2264   2.347       .  S
C1657      C1658   1.402       .  A
C1657      C1662   1.393       .  A
C1658      C1663   1.477       .  S
C1658      C1659   1.407       .  A
C1659      C1660   1.392       .  A
C1659      F1664   1.357       .  S
C1660      C1661   1.403       .  A
C1660      H1665   1.084       .  S
C1661      C1662   1.410       .  A
C1663      C1668   1.409       .  A
C1663      C1672   1.405       .  A
C1668      C1669   1.395       .  A
C1668      F1673   1.358       .  S
C1669      C1670   1.400       .  A
C1669      H1674   1.082       .  S
C1670      C1671   1.400       .  A
C1671      C1672   1.392       .  A
C1671      F1675   1.358       .  S
C1672      H1676   1.082       .  S
C1677      C1678   1.407       .  A
C1677      C1682   1.397       .  A
C1677      H1687   1.082       .  S
C1678      C1683   1.474       .  S
C1678      C1679   1.404       .  A
C1679      C1680   1.390       .  A
C1680      C1681   1.402       .  A
C1681      C2276   1.462       .  S
C1681      C1682   1.401       .  A
C1682      F2318   1.357       .  S
C1683      C1688   1.406       .  A
C1683      C1692   1.398       .  A
F1686      C2314   1.357       .  S
C1688      C1689   1.398       .  A
C1688      F1693   1.357       .  S
C1689      C1690   1.406       .  A
C1689      H1694   1.083       .  S
C1690      C1691   1.413       .  A
C1691      C1692   1.390       .  A
C1691      F1695   1.357       .  S
C1692      H1696   1.084       .  S
C1697      C1698   1.403       .  A
C1697      C1702   1.400       .  A
C1697      H1707   1.082       .  S
C1698      C1703   1.478       .  S
C1698      C1699   1.403       .  A
C1699      C1700   1.396       .  A
C1699      F1704   1.357       .  S
C1700      C1701   1.404       .  A
C1700      H1705   1.084       .  S
C1701      C1702   1.409       .  A
C1702      F1706   1.357       .  S
C1703      C1708   1.401       .  A
C1703      C1712   1.404       .  A
C1708      C1709   1.395       .  A
C1708      F1713   1.357       .  S
C1709      C1710   1.409       .  A
C1709      H1714   1.084       .  S
C1710      C1711   1.410       .  A
C1711      C1712   1.400       .  A
C1712      H1716   1.085       .  S
C1717      C1718   1.406       .  A
C1717      C1722   1.403       .  A
C1717      H1727   1.077       .  S
C1718      C1723   1.491       .  S
C1718      C1719   1.407       .  A
C1719      C1720   1.399       .  A
C1719      F1724   1.358       .  S
C1720      C1721   1.408       .  A
C1720      H1725   1.081       .  S
C1721      C1722   1.409       .  A
C1722      F1726   1.356       .  S
C1723      C1728   1.406       .  A
C1723      C1732   1.405       .  A
C1728      C1729   1.401       .  A
C1728      F1733   1.357       .  S
C1729      C1730   1.409       .  A
C1729      H1734   1.082       .  S
C1730      C1731   1.413       .  A
C1731      C1732   1.401       .  A
C1731      F1735   1.357       .  S
C1732      H1736   1.083       .  S
C1737      C1738   1.406       .  A
C1737      C1742   1.400       .  A
C1737      H1747   1.082       .  S
C1738      C1743   1.490       .  S
C1738      C1739   1.408       .  A
C1739      C1740   1.400       .  A
C1739      F1744   1.357       .  S
C1740      C1741   1.405       .  A
C1740      H1745   1.081       .  S
C1741      C2250   1.483       .  S
C1741      C1742   1.409       .  A
C1742      F2378   1.357       .  S
C1743      C1748   1.407       .  A
C1743      C1752   1.404       .  A
F1746      C2374   1.357       .  S
C1748      C1749   1.400       .  A
C1748      F1753   1.357       .  S
C1749      C1750   1.409       .  A
C1749      H1754   1.081       .  S
C1750      C1751   1.412       .  A
C1751      C1752   1.400       .  A
C1751      F1755   1.356       .  S
C1752      H1756   1.082       .  S
C1757      C1758   1.408       .  A
C1757      C1762   1.401       .  A
C1757      H1767   1.083       .  S
C1758      C1763   1.499       .  S
C1758      C1759   1.412       .  A
C1759      C1760   1.402       .  A
C1759      F1764   1.357       .  S
C1760      C1761   1.405       .  A
C1760      H1765   1.083       .  S
C1761      C1762   1.408       .  A
C1762      F1766   1.358       .  S
C1763      C1768   1.410       .  A
C1763      C1772   1.407       .  A
C1768      C1769   1.401       .  A
C1768      F1773   1.357       .  S
C1769      C1770   1.407       .  A
C1769      H1774   1.083       .  S
C1770      C1771   1.411       .  A
C1771      C1772   1.400       .  A
C1771      F1775   1.356       .  S
C1772      H1776   1.083       .  S
C1777      C1778   1.408       .  A
C1777      C1782   1.405       .  A
C1777      H1787   1.083       .  S
C1778      C1783   1.494       .  S
C1778      C1779   1.406       .  A
C1779      C1780   1.398       .  A
C1779      F1784   1.358       .  S
C1780      C1781   1.410       .  A
C1780      H1785   1.082       .  S
C1781      C1782   1.409       .  A
C1782      F1786   1.357       .  S
C1783      C1788   1.409       .  A
C1783      C1792   1.410       .  A
C1788      C1789   1.399       .  A
C1788      F1793   1.357       .  S
C1789      C1790   1.403       .  A
C1789      H1794   1.084       .  S
C1790      C1791   1.403       .  A
C1791      C1792   1.403       .  A
C1791      F1795   1.357       .  S
C1792      H1796   1.083       .  S
C1797      C1798   1.399       .  A
C1797      C1802   1.394       .  A
C1797      H1807   1.080       .  S
C1798      C1803   1.477       .  S
C1798      C1799   1.406       .  A
C1799      C1800   1.400       .  A
C1799      F1804   1.358       .  S
C1800      C1801   1.407       .  A
C1800      H1805   1.081       .  S
C1801      C1802   1.413       .  A
C1802      F1806   1.358       .  S
C1803      C1808   1.403       .  A
C1803      C1812   1.402       .  A
C1808      C1809   1.398       .  A
C1808      F1813   1.357       .  S
C1809      C1810   1.408       .  A
C1809      H1814   1.084       .  S
C1810      C1811   1.410       .  A
C1811      C1812   1.395       .  A
C1811      F1815   1.357       .  S
C1812      H1816   1.085       .  S
C1817      C1818   1.398       .  A
C1817      C1822   1.398       .  A
C1817      H1827   1.084       .  S
C1818      C1823   1.482       .  S
C1818      C1819   1.406       .  A
C1819      C1820   1.404       .  A
C1819      F1824   1.357       .  S
C1820      C1821   1.408       .  A
C1820      H1825   1.083       .  S
C1821      C1822   1.417       .  A
C1822      F1826   1.357       .  S
C1823      C1828   1.406       .  A
C1823      C1832   1.402       .  A
C1828      C1829   1.401       .  A
C1828      F1833   1.357       .  S
C1829      C1830   1.406       .  A
C1829      H1834   1.084       .  S
C1830      C1831   1.410       .  A
C1831      C1832   1.402       .  A
C1831      F1835   1.355       .  S
C1832      H1836   1.084       .  S
C1837      C1838   1.402       .  A
C1837      C1842   1.400       .  A
C1837      H1847   1.083       .  S
C1838      C1843   1.485       .  S
C1839      C1840   1.399   1_554  A
C1839      F1844   1.358       .  S
C1840      H1845   1.084   1_556  S
C1841      C1842   1.412       .  A
C1842      F1846   1.357       .  S
C1843      C1848   1.410       .  A
C1843      C1852   1.404       .  A
C1848      C1849   1.402       .  A
C1849      C1850   1.401       .  A
C1850      C1851   1.402       .  A
C1851      C1852   1.396       .  A
C1851      F1855   1.358       .  S
C1852      H1856   1.082       .  S
C1857      C1858   1.404       .  A
C1857      C1862   1.397       .  A
C1857      H1867   1.083       .  S
C1858      C1863   1.490       .  S
C1858      C1859   1.408       .  A
C1859      C1860   1.402       .  A
C1859      F1864   1.357       .  S
C1860      C1861   1.408       .  A
C1860      H1865   1.083       .  S
C1861      C1862   1.408       .  A
C1862      F1866   1.357       .  S
C1863      C1868   1.406       .  A
C1863      C1872   1.406       .  A
C1868      C1869   1.395       .  A
C1868      F1873   1.357       .  S
C1869      C1870   1.407       .  A
C1869      H1874   1.084       .  S
C1870      C1871   1.411       .  A
C1871      C1872   1.404       .  A
C1871      F1875   1.355       .  S
C1877      C1878   1.407       .  A
C1877      C1882   1.401       .  A
C1877      H1887   1.082       .  S
C1878      C1883   1.487       .  S
C1878      C1879   1.408       .  A
C1879      C1880   1.396       .  A
C1879      F1884   1.357       .  S
C1880      C1881   1.403       .  A
C1880      H1885   1.082       .  S
C1881      C1882   1.408       .  A
C1882      F1886   1.358       .  S
C1883      C1888   1.406       .  A
C1883      C1892   1.405       .  A
C1889      H1894   1.083       .  S
C1890      C1891   1.411       .  A
C1891      C1892   1.400       .  A
C1891      F1895   1.357       .  S
C1892      H1896   1.083       .  S
C1897      N1898   1.361       .  A
C1897      N1902   1.358       .  A
C1897      C2206   1.495       .  S
N1898      C1899   1.364       .  A
C1899      N1900   1.363       .  A
C1899      C2177   1.495       .  S
N1900      C1901   1.361       .  A
C1901      N1902   1.359       .  A
C1901      C2157   1.488       .  S
C1903      N1904   1.362       .  A
C1903      N1908   1.356       .  A
C1903      C2137   1.479       .  S
N1904      C1905   1.362       .  A
C1905      N1906   1.356       .  A
C1905      C2097   1.475       .  S
N1906      C1907   1.353       .  A
C1907      N1908   1.354       .  A
C1907      C2126   1.479       .  S
C1909      N1910   1.359       .  A
C1909      N1914   1.364       .  A
C1909      C2066   1.494       .  S
N1910      C1911   1.358       .  A
C1911      N1912   1.358       .  A
C1911      C2086   1.487       .  S
N1912      C1913   1.358       .  A
C1913      N1914   1.364       .  A
C1913      C2046   1.495       .  S
C1915      N1916   1.362       .  A
C1915      N1920   1.356       .  A
C1915      C2006   1.487       .  S
N1916      C1917   1.363       .  A
C1917      N1918   1.359       .  A
C1917      C2026   1.488       .  S
N1918      C1919   1.357       .  A
C1919      N1920   1.353       .  A
C1919      C1977   1.481       .  S
C1921      C2197   1.490       .  S
C1921      O1936   1.259       .  A
C1921      O1923   1.260       .  A
Tb1922     O1944   2.363       .  S
Tb1922     O1933   2.337       .  S
Tb1922     O1926   2.370       .  S
Tb1922     O1943   2.368       .  S
O1923     Tb1927   2.379       .  S
O1924      C1935   1.262   1_545  A
C1925      C2037   1.493       .  S
C1925      O1930   1.270       .  A
C1925      O1946   1.276       .  A
O1926      C1942   1.261       .  A
Tb1927     O1931   2.341       .  S
Tb1927     O1936   2.369       .  S
Tb1927     O1930   2.348       .  S
Tb1927     O1939   2.337       .  S
O1931      C1941   1.276       .  A
C1932      C2186   1.492       .  S
C1932      O1945   1.270       .  A
C1934      O1943   1.263       .  A
C1935      C2077   1.478       .  S
C1935      O1937   1.261       .  A
O1938      C1941   1.276       .  A
O1939      C1940   1.270       .  A
C1940      C1967   1.456       .  S
C1941      C2282   1.463   1_554  S
C1942      C2166   1.478       .  S
C1942      O1944   1.259       .  A
C1947      C2146   1.477       .  S
C1947      O1962   1.264       .  A
C1947      O1949   1.262       .  A
Tb1948     O1970   2.352       .  S
Tb1948     O1959   2.344   1_655  S
Tb1948     O1952   2.345       .  S
Tb1948     O1969   2.341       .  S
O1949     Tb1953   2.335       .  S
O1950      C1961   1.263       .  A
C1951      C1986   1.471       .  S
C1951      O1956   1.269       .  A
C1951      O1972   1.268       .  A
O1952      C1968   1.262       .  A
Tb1953     O1957   2.311       .  S
Tb1953     O1962   2.365       .  S
Tb1953     O1956   2.340       .  S
Tb1953     O1965   2.325       .  S
O1957      C1967   1.260       .  A
C1958      C2117   1.478       .  S
C1958      O1971   1.265       .  A
C1960      O1969   1.259       .  A
C1961      C2017   1.476       .  S
C1961      O1963   1.261       .  A
O1964      C1967   1.269       .  A
O1965      C1966   1.269       .  A
C1966      C2257   1.461       .  S
C1968      C2106   1.474       .  S
C1968      O1970   1.261       .  A
C1973      C1974   1.404       .  A
C1973      C1978   1.398       .  A
C1973      H2299   1.084       .  S
C1974      C1979   1.490       .  S
C1974      C1975   1.411       .  A
C1975      C1976   1.394       .  A
C1975      F1980   1.356       .  S
C1976      C1977   1.402       .  A
C1976      H1981   1.084       .  S
C1977      C1978   1.410       .  A
C1978      F2298   1.356       .  S
C1979      C1984   1.412       .  A
C1979      C1988   1.406       .  A
F1982      C2294   1.357       .  S
H1983      C2289   1.085       .  S
C1984      C1985   1.402       .  A
C1984      F1989   1.357       .  S
C1985      C1986   1.403       .  A
C1985      H1990   1.083       .  S
C1986      C1987   1.403       .  A
C1987      C1988   1.394       .  A
C1987      F1991   1.358       .  S
C1988      H1992   1.082       .  S
C1993      C1994   1.407       .  A
C1993      C1998   1.400       .  A
C1993      H2003   1.081       .  S
C1994      C1999   1.475       .  S
C1994      C1995   1.403       .  A
C1995      C1996   1.391       .  A
C1995      F2316   1.358       .  S
C1996      C1997   1.402       .  A
C1996      H2317   1.084   1_565  S
C1997      C1998   1.401       .  A
C1999      C2004   1.405       .  A
C1999      C2008   1.398       .  A
F2000      C2311   1.358       .  S
H2001      C2312   1.083       .  S
C2004      C2005   1.400       .  A
C2004      F2009   1.357       .  S
C2005      C2006   1.408       .  A
C2005      H2010   1.083       .  S
C2006      C2007   1.414       .  A
C2007      C2008   1.393       .  A
C2007      F2011   1.356       .  S
C2008      H2012   1.084       .  S
C2013      C2014   1.403       .  A
C2013      C2018   1.403       .  A
C2013      H2023   1.082       .  S
C2014      C2019   1.478       .  S
C2014      C2015   1.403       .  A
C2015      C2016   1.396       .  A
C2015      F2020   1.357       .  S
C2016      C2017   1.403       .  A
C2016      H2021   1.083       .  S
C2017      C2018   1.409       .  A
C2018      F2022   1.358       .  S
C2019      C2024   1.401       .  A
C2019      C2028   1.403       .  A
C2024      C2025   1.399       .  A
C2024      F2029   1.357       .  S
C2025      C2026   1.410       .  A
C2025      H2030   1.084       .  S
C2026      C2027   1.410       .  A
C2027      C2028   1.399       .  A
C2027      F2347   1.357       .  S
C2028      H2032   1.085       .  S
F2031      C2343   1.357       .  S
C2033      C2034   1.408       .  A
C2033      C2038   1.406       .  A
C2033      H2043   1.071       .  S
C2034      C2039   1.496       .  S
C2034      C2035   1.407       .  A
C2035      C2036   1.400       .  A
C2035      F2040   1.358       .  S
C2036      C2037   1.408       .  A
C2036      H2041   1.081       .  S
C2037      C2038   1.410       .  A
C2038      F2042   1.358       .  S
C2039      C2044   1.407       .  A
C2039      C2048   1.408       .  A
C2044      C2045   1.402       .  A
C2044      F2049   1.357       .  S
C2045      C2046   1.411       .  A
C2045      H2050   1.082       .  S
C2046      C2047   1.410       .  A
C2047      C2048   1.402       .  A
C2047      F2051   1.357       .  S
C2048      H2052   1.082       .  S
C2053      C2054   1.407       .  A
C2053      C2058   1.401       .  A
C2053      H2063   1.082       .  S
C2054      C2059   1.496       .  S
C2054      C2055   1.411       .  A
C2055      C2056   1.402       .  A
C2055      F2060   1.357       .  S
C2056      C2057   1.404       .  A
C2056      H2061   1.083       .  S
C2057      C2058   1.409       .  A
C2059      C2064   1.410       .  A
C2059      C2068   1.406       .  A
C2064      C2065   1.401       .  A
C2064      F2069   1.356       .  S
C2065      C2066   1.406       .  A
C2065      H2070   1.081       .  S
C2066      C2067   1.413       .  A
C2067      C2068   1.401       .  A
C2067      F2071   1.357       .  S
C2068      H2072   1.081       .  S
C2073      C2074   1.406       .  A
C2073      C2078   1.398       .  A
C2073      H2083   1.083       .  S
C2074      C2079   1.487       .  S
C2074      C2075   1.408       .  A
C2075      C2076   1.397       .  A
C2075      F2080   1.357       .  S
C2076      C2077   1.404       .  A
C2076      H2081   1.083   1_565  S
C2077      C2078   1.408       .  A
C2078      F2082   1.358       .  S
C2079      C2084   1.407       .  A
C2079      C2088   1.405       .  A
C2084      C2085   1.397       .  A
C2084      F2089   1.357       .  S
C2085      C2086   1.407       .  A
C2085      H2090   1.083       .  S
C2086      C2087   1.410       .  A
C2087      C2088   1.398       .  A
C2087      F2091   1.357       .  S
C2088      H2092   1.083       .  S
C2093      C2094   1.403       .  A
C2093      C2098   1.397       .  A
C2093      H2103   1.085       .  S
C2094      C2099   1.470       .  S
C2094      C2095   1.401       .  A
C2095      C2096   1.396       .  A
C2095      F2100   1.358       .  S
C2096      C2097   1.408       .  A
C2096      H2101   1.084       .  S
C2097      C2098   1.405       .  A
C2098      F2102   1.357       .  S
C2099      C2104   1.401       .  A
C2099      C2108   1.402       .  A
C2104      C2105   1.394       .  A
C2104      F2109   1.357       .  S
C2105      C2106   1.404       .  A
C2105      H2110   1.082       .  S
C2106      C2107   1.410       .  A
C2107      C2108   1.399       .  A
C2107      F2111   1.358       .  S
C2108      H2112   1.083       .  S
C2113      C2114   1.403       .  A
C2113      C2118   1.393       .  A
C2113      H2123   1.083       .  S
C2114      C2119   1.478       .  S
C2114      C2115   1.406       .  A
C2115      C2116   1.395       .  A
C2115      F2120   1.357       .  S
C2116      C2117   1.407       .  A
C2116      H2121   1.082       .  S
C2117      C2118   1.409       .  A
C2118      F2122   1.356       .  S
C2119      C2124   1.405       .  A
C2119      C2128   1.403       .  A
C2124      C2125   1.393       .  A
C2124      F2129   1.357       .  S
C2125      C2126   1.406       .  A
C2125      H2130   1.084       .  S
C2126      C2127   1.410       .  A
C2127      C2128   1.394       .  A
C2127      F2131   1.357       .  S
C2128      H2132   1.085       .  S
C2133      C2134   1.400       .  A
C2133      C2138   1.396       .  A
C2133      H2143   1.083       .  S
C2134      C2139   1.479       .  S
C2134      C2135   1.408       .  A
C2135      C2136   1.399       .  A
C2135      F2140   1.358       .  S
C2136      C2137   1.404       .  A
C2136      H2141   1.083       .  S
C2137      C2138   1.411       .  A
C2138      F2142   1.358       .  S
C2139      C2144   1.403       .  A
C2139      C2148   1.406       .  A
C2144      C2145   1.392       .  A
C2144      F2149   1.357       .  S
C2145      C2146   1.403       .  A
C2145      H2150   1.082       .  S
C2146      C2147   1.409       .  A
C2147      C2148   1.403       .  A
C2147      F2151   1.358       .  S
C2148      H2152   1.083       .  S
C2153      C2154   1.409       .  A
C2153      C2158   1.402       .  A
C2153      H2163   1.083       .  S
C2154      C2159   1.498       .  S
C2154      C2471   1.411       .  A
C2155      C2470   1.408       .  A
C2155      C2156   1.405       .  A
C2155      F2160   1.357       .  S
C2156      C2473   1.408       .  A
C2156      H2161   1.083       .  S
C2157      C2472   1.405       .  A
C2157      C2158   1.408       .  A
C2158      F2162   1.357       .  S
C2159      C2164   1.413       .  A
C2159      C2168   1.408       .  A
C2164      C2165   1.402       .  A
C2164      F2485   1.357       .  S
C2165      C2166   1.401       .  A
C2165      H2486   1.084       .  S
C2166      C2167   1.406       .  A
C2167      C2168   1.401       .  A
C2167      F2171   1.358       .  S
C2168      H2172   1.082       .  S
F2169      C2480   1.357       .  S
H2170      C2481   1.083       .  S
C2173      C2174   1.407       .  A
C2173      C2178   1.403       .  A
C2173      H2183   1.082       .  S
C2174      C2179   1.495       .  S
C2174      C2175   1.408       .  A
C2175      C2176   1.399       .  A
C2175      F2180   1.357       .  S
C2176      C2177   1.408       .  A
C2176      H2181   1.083       .  S
C2177      C2178   1.413       .  A
C2178      F2182   1.357       .  S
C2179      C2184   1.409       .  A
C2179      C2188   1.407       .  A
C2184      C2185   1.400       .  A
C2184      F2189   1.358       .  S
C2185      C2186   1.409       .  A
C2185      H2190   1.082       .  S
C2186      C2187   1.409       .  A
C2187      C2188   1.402       .  A
C2187      F2191   1.357       .  S
C2188      H2508   1.081       .  S
H2192      C2504   1.083       .  S
C2193      C2194   1.408       .  A
C2193      C2198   1.406       .  A
C2193      H2203   1.082       .  S
C2194      C2199   1.495       .  S
C2194      C2195   1.408       .  A
C2195      C2196   1.401       .  A
C2195      F2200   1.358       .  S
C2196      C2197   1.406       .  A
C2196      H2201   1.082       .  S
C2197      C2198   1.409       .  A
C2198      F2202   1.357       .  S
C2199      C2204   1.409       .  A
C2199      C2208   1.405       .  A
C2204      C2521   1.404       .  A
C2204      F2525   1.357       .  S
C2205      C2520   1.398       .  A
C2205      C2522   1.411       .  A
C2205      H2210   1.083       .  S
C2206      C2521   1.409       .  A
C2206      C2207   1.412       .  A
C2207      C2208   1.400       .  A
C2207      F2211   1.357       .  S
C2208      H2212   1.083       .  S
F2209      C2520   1.358       .  S
C2213      N2214   1.357       .  A
C2213      N2218   1.365       .  A
C2213      C2522   1.493       .  S
N2214      C2215   1.355       .  A
C2215      N2216   1.355       .  A
C2215      C2493   1.481       .  S
N2216      C2217   1.360       .  A
C2217      N2218   1.365       .  A
C2217      C2473   1.492       .  S
C2219      N2220   1.365       .  A
C2219      N2224   1.359       .  A
C2219      C2453   1.494       .  S
N2220      C2221   1.365       .  A
C2221      N2222   1.360       .  A
C2221      C2413   1.497       .  S
N2222      C2223   1.358       .  A
C2223      N2224   1.357       .  A
C2223      C2442   1.483       .  S
C2225      N2226   1.366       .  A
C2225      N2230   1.360       .  A
C2225      C2382   1.493       .  S
N2226      C2227   1.366       .  A
C2227      N2228   1.358       .  A
C2227      C2402   1.490       .  S
N2228      C2229   1.354       .  A
C2229      N2230   1.354       .  A
C2229      C2362   1.486       .  S
C2231      N2232   1.359       .  A
C2231      N2236   1.359       .  A
C2231      C2322   1.482       .  S
N2232      C2233   1.355       .  A
C2233      N2234   1.356       .  A
C2233      C2342   1.482       .  S
N2234      C2235   1.355       .  A
C2235      N2236   1.358       .  A
C2235      C2293   1.479       .  S
C2237      C2513   1.480       .  S
C2237      O2252   1.263       .  A
C2237      O2239   1.263       .  A
Tb2238     O2260   2.371       .  S
Tb2238     O2249   2.370       .  S
Tb2238     O2242   2.350       .  S
Tb2238     O2259   2.360       .  S
O2239     Tb2243   2.359       .  S
O2240      C2251   1.265       .  A
C2241      C2353   1.484       .  S
C2241      O2246   1.275       .  A
C2241      O2262   1.275       .  A
O2242      C2258   1.260       .  A
Tb2243     O2247   2.337       .  S
Tb2243     O2252   2.349       .  S
Tb2243     O2246   2.352       .  S
Tb2243     O2255   2.327       .  S
O2247      C2257   1.270       .  A
C2248      C2502   1.489       .  S
C2248      O2261   1.274       .  A
C2250      O2259   1.260       .  A
C2251      C2393   1.474       .  S
C2251      O2253   1.262       .  A
O2254      C2257   1.264       .  A
O2255      C2256   1.274       .  A
C2256      C2283   1.456       .  S
C2258      C2482   1.483       .  S
C2258      O2260   1.262       .  A
C2263      C2462   1.483       .  S
C2263      O2278   1.262       .  A
C2263      O2265   1.259       .  A
Tb2264     O2286   2.370       .  S
Tb2264     O2275   2.335       .  S
Tb2264     O2268   2.373       .  S
Tb2264     O2285   2.328       .  S
O2265     Tb2269   2.353       .  S
O2266      C2277   1.263   1_545  A
C2267      C2302   1.458       .  S
C2267      O2272   1.267       .  A
C2267      O2288   1.266       .  A
O2268      C2284   1.263       .  A
Tb2269     O2273   2.316       .  S
Tb2269     O2278   2.375       .  S
Tb2269     O2272   2.342       .  S
Tb2269     O2281   2.327       .  S
O2273      C2283   1.269       .  A
C2274      C2433   1.485       .  S
C2274      O2287   1.265       .  A
C2276      O2285   1.258       .  A
C2277      C2333   1.475       .  S
C2277      O2279   1.260       .  A
O2280      C2283   1.277       .  A
O2281      C2282   1.272       .  A
C2284      C2422   1.488       .  S
C2284      O2286   1.261       .  A
C2289      C2290   1.403       .  A
C2289      C2294   1.396       .  A
C2290      C2295   1.475       .  S
C2290      C2291   1.403       .  A
C2291      C2292   1.394       .  A
C2291      F2296   1.358       .  S
C2292      C2293   1.407       .  A
C2292      H2297   1.085       .  S
C2293      C2294   1.408       .  A
C2295      C2300   1.406       .  A
C2295      C2304   1.406       .  A
C2300      C2301   1.394       .  A
C2300      F2305   1.357       .  S
C2301      C2302   1.400       .  A
C2301      H2306   1.084       .  S
C2302      C2303   1.402       .  A
C2303      C2304   1.396       .  A
C2303      F2307   1.358       .  S
C2304      H2308   1.083       .  S
C2309      C2310   1.403       .  A
C2309      C2314   1.397       .  A
C2309      H2319   1.083       .  S
C2310      C2315   1.473       .  S
C2310      C2311   1.405       .  A
C2311      C2312   1.392       .  A
C2312      C2313   1.404       .  A
C2313      C2314   1.407       .  A
C2315      C2320   1.403       .  A
C2315      C2324   1.401       .  A
C2320      C2321   1.393       .  A
C2320      F2325   1.358       .  S
C2321      C2322   1.407       .  A
C2321      H2326   1.083       .  S
C2322      C2323   1.411       .  A
C2323      C2324   1.396       .  A
C2323      F2327   1.357       .  S
C2324      H2328   1.083       .  S
C2329      C2330   1.402       .  A
C2329      C2334   1.394       .  A
C2329      H2339   1.084       .  S
C2330      C2335   1.477       .  S
C2330      C2331   1.406       .  A
C2331      C2332   1.399       .  A
C2331      F2336   1.358       .  S
C2332      C2333   1.406       .  A
C2332      H2337   1.084       .  S
C2333      C2334   1.407       .  A
C2334      F2338   1.357       .  S
C2335      C2340   1.403       .  A
C2335      C2344   1.403       .  A
C2340      C2341   1.392       .  A
C2340      F2345   1.357       .  S
C2341      C2342   1.406       .  A
C2341      H2346   1.084       .  S
C2342      C2343   1.412       .  A
C2343      C2344   1.399       .  A
C2344      H2348   1.085       .  S
C2349      C2350   1.405       .  A
C2349      C2354   1.400       .  A
C2349      H2359   1.083       .  S
C2350      C2355   1.487       .  S
C2350      C2351   1.408       .  A
C2351      C2352   1.397       .  A
C2351      F2356   1.358       .  S
C2352      C2353   1.406       .  A
C2352      H2357   1.083       .  S
C2353      C2354   1.410       .  A
C2354      F2358   1.357       .  S
C2355      C2360   1.407       .  A
C2355      C2364   1.405       .  A
C2360      C2361   1.396       .  A
C2360      F2365   1.357       .  S
C2361      C2362   1.407       .  A
C2361      H2366   1.082       .  S
C2362      C2363   1.410       .  A
C2363      C2364   1.400       .  A
C2363      F2367   1.357       .  S
C2364      H2368   1.083       .  S
C2369      C2370   1.405       .  A
C2369      C2374   1.406       .  A
C2369      H2379   1.083       .  S
C2370      C2375   1.487       .  S
C2370      C2371   1.407       .  A
C2371      C2372   1.397       .  A
C2371      F2376   1.358       .  S
C2372      C2373   1.403       .  A
C2372      H2377   1.083       .  S
C2373      C2374   1.412       .  A
C2375      C2380   1.403       .  A
C2375      C2384   1.406       .  A
C2380      C2381   1.394       .  A
C2380      F2385   1.358       .  S
C2381      C2382   1.409       .  A
C2381      H2386   1.081       .  S
C2382      C2383   1.412       .  A
C2383      C2384   1.408       .  A
C2383      F2387   1.357       .  S
C2384      H2388   1.081       .  S
C2389      C2390   1.405       .  A
C2389      C2394   1.396       .  A
C2389      H2399   1.084       .  S
C2390      C2395   1.483       .  S
C2390      C2391   1.406       .  A
C2391      C2392   1.400       .  A
C2391      F2396   1.356       .  S
C2392      C2393   1.405       .  A
C2392      H2397   1.082       .  S
C2393      C2394   1.405       .  A
C2394      F2398   1.358       .  S
C2395      C2400   1.403       .  A
C2395      C2404   1.406       .  A
C2400      C2401   1.393       .  A
C2400      F2405   1.358       .  S
C2401      C2402   1.409       .  A
C2401      H2406   1.083       .  S
C2402      C2403   1.410       .  A
C2403      C2404   1.404       .  A
C2403      F2407   1.357       .  S
C2404      H2408   1.084       .  S
C2409      C2410   1.406       .  A
C2409      C2414   1.404       .  A
C2409      H2419   1.083       .  S
C2410      C2415   1.494       .  S
C2410      C2411   1.406       .  A
C2411      C2412   1.402       .  A
C2411      F2416   1.357       .  S
C2412      C2413   1.411       .  A
C2412      H2417   1.083       .  S
C2413      C2414   1.411       .  A
C2414      F2418   1.357       .  S
C2415      C2420   1.407       .  A
C2415      C2424   1.407       .  A
C2420      C2421   1.402       .  A
C2420      F2425   1.354       .  S
C2421      C2422   1.405       .  A
C2421      H2426   1.085       .  S
C2422      C2423   1.409       .  A
C2423      C2424   1.404       .  A
C2423      F2427   1.357       .  S
C2424      H2428   1.085       .  S
C2429      C2430   1.405       .  A
C2429      C2434   1.397       .  A
C2429      H2439   1.082       .  S
C2430      C2435   1.488       .  S
C2430      C2431   1.408       .  A
C2431      C2432   1.400       .  A
C2431      F2436   1.357       .  S
C2432      C2433   1.407       .  A
C2432      H2437   1.082       .  S
C2433      C2434   1.406       .  A
C2434      F2438   1.352   1_655  S
C2435      C2440   1.408       .  A
C2435      C2444   1.406       .  A
C2440      C2441   1.399       .  A
C2440      F2445   1.357       .  S
C2441      C2442   1.405       .  A
C2441      H2446   1.085       .  S
C2442      C2443   1.407       .  A
C2443      C2444   1.399       .  A
C2443      F2447   1.356       .  S
C2444      H2448   1.085       .  S
C2449      C2450   1.403       .  A
C2449      C2454   1.400       .  A
C2449      H2459   1.083       .  S
C2450      C2455   1.488       .  S
C2450      C2451   1.407       .  A
C2451      C2452   1.403       .  A
C2451      F2456   1.357       .  S
C2452      C2453   1.408       .  A
C2452      H2457   1.083       .  S
C2453      C2454   1.414       .  A
C2454      F2458   1.357       .  S
C2455      C2460   1.406       .  A
C2455      C2464   1.406       .  A
C2460      C2461   1.399       .  A
C2460      F2465   1.357       .  S
C2461      C2462   1.405       .  A
C2461      H2466   1.084       .  S
C2462      C2463   1.408       .  A
C2463      C2464   1.404       .  A
C2463      F2467   1.358       .  S
C2464      H2468   1.084       .  S
C2469      C2470   1.401       .  A
C2469      C2474   1.395       .  A
C2469      H2479   1.084       .  S
C2470      C2475   1.487       .  S
C2471      C2472   1.399       .  A
C2471      F2476   1.357       .  S
C2472      H2477   1.084       .  S
C2473      C2474   1.413       .  A
C2474      F2478   1.357       .  S
C2475      C2480   1.408       .  A
C2475      C2484   1.404       .  A
C2480      C2481   1.404       .  A
C2481      C2482   1.408       .  A
C2482      C2483   1.408       .  A
C2483      C2484   1.397       .  A
C2483      F2487   1.358       .  S
C2484      H2488   1.084       .  S
C2489      C2490   1.409       .  A
C2489      C2494   1.403       .  A
C2489      H2499   1.082       .  S
C2490      C2495   1.494       .  S
C2490      C2491   1.410       .  A
C2491      C2492   1.393       .  A
C2491      F2496   1.357       .  S
C2492      C2493   1.402       .  A
C2492      H2497   1.083       .  S
C2493      C2494   1.407       .  A
C2494      F2498   1.357       .  S
C2495      C2500   1.410       .  A
C2495      C2504   1.407       .  A
C2500      C2501   1.399       .  A
C2500      F2505   1.357       .  S
C2501      C2502   1.408       .  A
C2501      H2506   1.084       .  S
C2502      C2503   1.410       .  A
C2503      C2504   1.397       .  A
C2503      F2507   1.357       .  S
C2509      C2510   1.408       .  A
C2509      C2514   1.402       .  A
C2509      H2519   1.084       .  S
C2510      C2515   1.488       .  S
C2510      C2511   1.406       .  A
C2511      C2512   1.397       .  A
C2511      F2516   1.357       .  S
C2512      C2513   1.404       .  A
C2512      H2517   1.083       .  S
C2513      C2514   1.408       .  A
C2514      F2518   1.358       .  S
C2515      C2520   1.405       .  A
C2515      C2524   1.406       .  A
C2521      H2526   1.083       .  S
C2522      C2523   1.409       .  A
C2523      C2524   1.402       .  A
C2523      F2527   1.357       .  S
C2524      H2528   1.083       .  S
