geometry optimzed in LAMMPS
_audit_creation_date              2020-12-01 
_audit_creation_method            'lammps2cif' 
_symmetry_space_group_name_H-M    'P1' 
_symmetry_Int_Tables_number       1 
_symmetry_cell_setting            triclinic 
loop_ 
_symmetry_equiv_pos_as_xyz 
  x,y,z 
_cell_length_a                    37.22011068 
_cell_length_b                    37.336098654911176 
_cell_length_c                    66.6110254048132 
_cell_angle_alpha                 90.25102745126395 
_cell_angle_beta                  89.78525346470677 
_cell_angle_gamma                 89.49377645718482 
loop_ 
_atom_site_label 
_atom_site_type_symbol 
_atom_site_fract_x 
_atom_site_fract_y 
_atom_site_fract_z 
_atom_site_charge 
C1          C  0.24905810  0.50088995  0.24908103    -0.03000
N2          N  0.44424336  0.25606605  0.99958942    -0.37100
N3          N  0.00070606  0.25148774  0.97036749    -0.57700
N4          N  0.05614306  0.25403852  0.00061263    -0.37100
N5          N  0.00075519  0.25588245  0.03104912    -0.57700
C6          C  0.42513288  0.24471226  0.98364496     0.26400
C7          C  0.42383634  0.25085879  0.01610930     0.26400
C8          C  0.07582061  0.24435670  0.98440398     0.26400
C9          C  0.07583232  0.24617407  0.01700242     0.26400
C10         C  0.47246879  0.25218290  0.95761026     0.35100
C11         C  0.02969473  0.25713829  0.95859898     0.35100
C12         C  0.46908412  0.26877796  0.04143710     0.35100
C13         C  0.02976402  0.26208249  0.04258277     0.35100
C14         C  0.39179255  0.23285503  0.99000078    -0.22400
C15         C  0.39100869  0.23664501  0.01058649    -0.22400
C16         C  0.10880593  0.23079902  0.99049432    -0.22400
C17         C  0.10879135  0.23190497  0.01117951    -0.22400
C18         C  0.48357776  0.25876934  0.93809811    -0.23500
C19         C  0.01903119  0.26677823  0.93943378    -0.23500
C20         C  0.47894606  0.28107762  0.06028211    -0.23500
C21         C  0.01922137  0.27283236  0.06168374    -0.23500
C22         C  0.43646163  0.24670084  0.96348136    -0.18800
C23         C  0.43374517  0.26008078  0.03585877    -0.18800
C24         C  0.06533888  0.25364715  0.03692288    -0.18800
C25         C  0.06545880  0.25005109  0.96436438    -0.18800
H26         H  0.37028847  0.22263719  0.98076417     0.14100
H27         H  0.36875674  0.22995783  0.02034166     0.14100
H28         H  0.13067805  0.22142953  0.98103300     0.14100
H29         H  0.13064510  0.22355252  0.02080885     0.14100
H30         H  0.46696685  0.26206018  0.92491955     0.12400
H31         H  0.03596012  0.27218002  0.92657413     0.12400
H32         H  0.46146604  0.28855798  0.07265761     0.12400
H33         H  0.03618386  0.27863549  0.07443064     0.12400
H34         H  0.46822880  0.27004767  0.99898607     0.25600
H35         H  0.03247346  0.26902444  0.00041306     0.25600
C36         C  0.24624594  0.99896664  0.75024663    -0.03000
C37         C  0.00218357  0.25085604  0.75038592    -0.03000
N38         N  0.24959998  0.05398746  0.99923788    -0.37100
N39         N  0.25579487  0.50255758  0.03108051    -0.57700
N40         N  0.25225266  0.44624521  0.00095433    -0.37100
N41         N  0.25059417  0.50095417  0.96984149    -0.57700
C42         C  0.25856128  0.07483201  0.01503781     0.26400
C43         C  0.25620877  0.07287987  0.98240373     0.26400
C44         C  0.25884062  0.42611343  0.01737826     0.26400
C45         C  0.25832534  0.42538521  0.98462770     0.26400
C46         C  0.24804003  0.03019892  0.04199782     0.35100
C47         C  0.25184630  0.47411943  0.04335932     0.35100
C48         C  0.24121097  0.02546888  0.95746183     0.35100
C49         C  0.24670254  0.47148159  0.95827069     0.35100
C50         C  0.27049512  0.10768324  0.00821741    -0.22400
C51         C  0.26901979  0.10645411  0.98755816    -0.22400
C52         C  0.26826942  0.39163528  0.01145731    -0.22400
C53         C  0.26809923  0.39121308  0.99075540    -0.22400
C54         C  0.24007836  0.02098218  0.06164240    -0.23500
C55         C  0.24580411  0.48562553  0.06292000    -0.23500
C56         C  0.23129555  0.01394852  0.93845400    -0.23500
C57         C  0.23788527  0.48118411  0.93881392    -0.23500
C58         C  0.25416876  0.06552961  0.03540040    -0.18800
C59         C  0.24861368  0.06134181  0.96267344    -0.18800
C60         C  0.25383745  0.43597379  0.96441233    -0.18800
C61         C  0.25539561  0.43780187  0.03752730    -0.18800
H62         H  0.27902478  0.13027705  0.01719002     0.14100
H63         H  0.27610091  0.12800162  0.97751616     0.14100
H64         H  0.27472155  0.36917314  0.02104877     0.14100
H65         H  0.27423175  0.36829439  0.98130284     0.14100
H66         H  0.23610075  0.03870073  0.07437404     0.12400
H67         H  0.24213653  0.46938924  0.07617973     0.12400
H68         H  0.22612303  0.03004817  0.92529808     0.12400
H69         H  0.23377946  0.46378904  0.92600041     0.12400
H70         H  0.23575606  0.02999639  0.99997986     0.25600
H71         H  0.24089026  0.47172063  0.00095037     0.25600
N72         N  0.23541847  0.32331742  0.86688589    -0.06700
N73         N  0.22361301  0.33934855  0.88336006    -0.58800
N74         N  0.26947373  0.32682464  0.82050129    -0.06300
N75         N  0.28175712  0.35098990  0.80787328    -0.60900
N76         N  0.23407797  0.32713594  0.82066115    -0.05900
N77         N  0.22171732  0.35141414  0.80798404    -0.58800
N78         N  0.27069280  0.32300745  0.86646252    -0.05600
N79         N  0.28365407  0.33889837  0.88258658    -0.61300
C80         C  0.25398863  0.34883906  0.89306683     0.95500
C81         C  0.25178147  0.36604409  0.80004485     0.95300
N82         N  0.33020025  0.23053876  0.81819379    -0.06800
N83         N  0.35419000  0.21891912  0.80497934    -0.59400
N84         N  0.32892844  0.26336920  0.86495222    -0.05000
N85         N  0.34388312  0.27494313  0.88163770    -0.60600
N86         N  0.32916145  0.22818464  0.86437067    -0.06900
N87         N  0.34433616  0.21510691  0.88069494    -0.59600
N88         N  0.33001125  0.26580603  0.81888257    -0.04600
N89         N  0.35380600  0.27874031  0.80615315    -0.60700
Mn90       Mn  0.30056669  0.29545904  0.84248810     1.18400
C91         C  0.36819339  0.24926670  0.79730810     0.97600
C92         C  0.35328327  0.24462256  0.89136611     0.98300
N93         N  0.17304292  0.26709188  0.82047308    -0.06900
N94         N  0.14905541  0.27990511  0.80772960    -0.63200
N95         N  0.17688037  0.22941002  0.86590514    -0.05700
N96         N  0.16177754  0.21614183  0.88216429    -0.63900
N97         N  0.17698180  0.26456007  0.86668637    -0.06400
N98         N  0.16205500  0.27591349  0.88356845    -0.63500
N99         N  0.17353230  0.23185579  0.81979705    -0.05300
N100        N  0.15014130  0.22014486  0.80652599    -0.64200
Mn101      Mn  0.20394946  0.29638617  0.84349086     1.10700
C102        C  0.13526436  0.25030949  0.79888672     0.98800
C103        C  0.15257800  0.24542047  0.89308340     0.98900
N104        N  0.27055109  0.16991867  0.86373265    -0.06400
N105        N  0.28325047  0.15322169  0.87964883    -0.61800
N106        N  0.23374779  0.17113659  0.81802488    -0.05700
N107        N  0.22047934  0.14851899  0.80478800    -0.58500
N108        N  0.26912214  0.17037560  0.81750192    -0.07000
N109        N  0.28048174  0.14705405  0.80384151    -0.61300
N110        N  0.23528657  0.17027312  0.86406233    -0.06000
N111        N  0.22326013  0.15374119  0.88016373    -0.58500
Mn112      Mn  0.30067908  0.19887899  0.84068015     1.20200
Mn113      Mn  0.20406928  0.19994958  0.84173659     1.10100
Cl114      Cl  0.25231628  0.24769481  0.84175444    -0.86500
C115        C  0.25346730  0.14307148  0.88975377     0.95800
C116        C  0.24981103  0.13422146  0.79573355     0.95600
N117        N  0.22794201  0.32752590  0.18177089    -0.06700
N118        N  0.21419834  0.35013369  0.19513244    -0.58800
N119        N  0.26470413  0.32748665  0.13604714    -0.06300
N120        N  0.27757932  0.34414048  0.12022226    -0.60900
N121        N  0.22950600  0.32586707  0.13528389    -0.05900
N122        N  0.21771940  0.34151729  0.11874789    -0.58800
N123        N  0.26327954  0.32839028  0.18217553    -0.05600
N124        N  0.27419027  0.35152203  0.19584323    -0.61300
C125        C  0.24336956  0.36446425  0.20410164     0.95500
C126        C  0.24811473  0.35287875  0.10949986     0.95300
N127        N  0.32687006  0.23628905  0.13490016    -0.06800
N128        N  0.34238585  0.22521302  0.11813091    -0.59400
N129        N  0.32700921  0.27035653  0.18155862    -0.05000
N130        N  0.34996914  0.28326532  0.19474642    -0.60600
N131        N  0.32871523  0.23512148  0.18114460    -0.06900
N132        N  0.35253713  0.22341200  0.19423378    -0.59600
N133        N  0.32525629  0.27142720  0.13543521    -0.04600
N134        N  0.33949586  0.28496684  0.11900347    -0.60700
Mn135      Mn  0.29580967  0.30019815  0.15912078     1.18400
C136        C  0.35006501  0.25587394  0.10831605     0.97600
C137        C  0.36551356  0.25367545  0.20265922     0.98300
N138        N  0.17298503  0.26434330  0.13550758    -0.06900
N139        N  0.15577668  0.27610328  0.11957130    -0.63200
N140        N  0.17311843  0.22900439  0.18162080    -0.05700
N141        N  0.15085908  0.21580466  0.19513789    -0.63900
N142        N  0.17119704  0.26426790  0.18160334    -0.06400
N143        N  0.14768909  0.27559935  0.19515983    -0.63500
N144        N  0.17430664  0.22917036  0.13548231    -0.05300
N145        N  0.15804133  0.21625608  0.11946631    -0.64200
Mn146      Mn  0.19944701  0.29632436  0.15864137     1.10700
C147        C  0.14643547  0.24587083  0.10972925     0.98800
C148        C  0.13573731  0.24517085  0.20376889     0.98900
N149        N  0.27214833  0.17228502  0.18074315    -0.06400
N150        N  0.28596529  0.15023703  0.19417432    -0.61800
N151        N  0.23601288  0.17330196  0.13465156    -0.05700
N152        N  0.22402860  0.15832979  0.11801816    -0.58500
N153        N  0.27125138  0.17493106  0.13429913    -0.07000
N154        N  0.28393678  0.16102700  0.11739564    -0.61300
N155        N  0.23683220  0.17098566  0.18112042    -0.06000
N156        N  0.22600971  0.14802833  0.19485657    -0.58500
Mn157      Mn  0.30069035  0.20377611  0.15791353     1.20200
Mn158      Mn  0.20426669  0.19963333  0.15845639     1.10100
Cl159      Cl  0.25001288  0.24997286  0.15885540    -0.86500
C160        C  0.25688069  0.13582716  0.20317747     0.95800
C161        C  0.25414719  0.15081806  0.10732457     0.95600
N162        N  0.47966921  0.07987450  0.68335077    -0.06700
N163        N  0.46770631  0.10386087  0.69648071    -0.58800
N164        N  0.01202822  0.07677538  0.63493365    -0.06300
N165        N  0.02296770  0.09328604  0.61856307    -0.60900
N166        N  0.47585351  0.07886283  0.63736889    -0.05900
N167        N  0.46136805  0.09555984  0.62192131    -0.58800
N168        N  0.01489430  0.07978107  0.68102683    -0.05600
N169        N  0.02734208  0.10466444  0.69326555    -0.61300
C170        C  0.49791532  0.11947708  0.70341948     0.95500
C171        C  0.49000796  0.10617225  0.61099372     0.95300
N172        N  0.07310720  0.48572662  0.63450123    -0.06800
N173        N  0.08947306  0.47344208  0.61828764    -0.59400
N174        N  0.07661508  0.01945086  0.67999923    -0.05000
N175        N  0.10048515  0.03250655  0.69261696    -0.60600
N176        N  0.07753966  0.48540740  0.68043029    -0.06900
N177        N  0.10235635  0.47371619  0.69298828    -0.59600
N178        N  0.07283521  0.01873172  0.63398718    -0.04600
N179        N  0.08924094  0.03090396  0.61782153    -0.60700
Mn180      Mn  0.04485945  0.04942496  0.65764000     1.18400
C181        C  0.10005044  0.00087327  0.60797682     0.97600
C182        C  0.11586263  0.00305048  0.70072154     0.98300
N183        N  0.41926074  0.01897790  0.63816632    -0.06900
N184        N  0.40339461  0.03179542  0.62200405    -0.63200
N185        N  0.42138106  0.48182264  0.68308410    -0.05700
N186        N  0.39755219  0.46866487  0.69579518    -0.63900
N187        N  0.42119091  0.01708550  0.68446689    -0.06400
N188        N  0.39817476  0.02825944  0.69831190    -0.63500
N189        N  0.42192969  0.48220509  0.63699861    -0.05300
N190        N  0.40719820  0.46923338  0.62055644    -0.64200
Mn191      Mn  0.44815753  0.04937185  0.66118249     1.10700
C192        C  0.39519470  0.00232652  0.61113951     0.98800
C193        C  0.38478959  0.99775565  0.70618569     0.98900
N194        N  0.01914030  0.42249379  0.68090727    -0.06400
N195        N  0.03285862  0.39822585  0.69317633    -0.61800
N196        N  0.48283825  0.42571522  0.63557704    -0.05700
N197        N  0.47003126  0.41009575  0.61932255    -0.58500
N198        N  0.01628112  0.42635827  0.63493275    -0.07000
N199        N  0.02828131  0.41165465  0.61814495    -0.61300
N200        N  0.48562771  0.42341370  0.68186788    -0.06000
N201        N  0.47489372  0.39968413  0.69517406    -0.58500
Mn202      Mn  0.04731859  0.45424992  0.65794563     1.20200
Mn203      Mn  0.45226529  0.45247907  0.65969670     1.10100
Cl204      Cl  0.49817523  0.00229845  0.65961099    -0.86500
C205        C  0.50576429  0.38555878  0.70253686     0.95800
C206        C  0.49965001  0.40185343  0.60833030     0.95600
N207        N  0.48145617  0.42053274  0.31697414    -0.06700
N208        N  0.46915322  0.39734450  0.30369135    -0.58800
N209        N  0.01356973  0.42311667  0.36544646    -0.06300
N210        N  0.02450014  0.40820250  0.38230993    -0.60900
N211        N  0.47926254  0.42068271  0.36316779    -0.05900
N212        N  0.46543227  0.40533895  0.37922306    -0.58800
N213        N  0.01607609  0.42012592  0.31906389    -0.05600
N214        N  0.02854368  0.39547784  0.30647353    -0.61300
C215        C  0.49911382  0.38240607  0.29553975     0.95500
C216        C  0.49445310  0.39555782  0.39011517     0.95300
N217        N  0.07581953  0.01349657  0.36703465    -0.06800
N218        N  0.09244097  0.02509152  0.38322637    -0.59400
N219        N  0.07854744  0.47946167  0.32011981    -0.05000
N220        N  0.10298613  0.46675282  0.30744178    -0.60600
N221        N  0.08110864  0.01496996  0.32080730    -0.06900
N222        N  0.10514079  0.02722122  0.30793769    -0.59600
N223        N  0.07442772  0.47977635  0.36627899    -0.04600
N224        N  0.09089099  0.46733475  0.38236984    -0.60700
Mn225      Mn  0.04643339  0.44970224  0.34251253     1.18400
C226        C  0.10197542  0.49721021  0.39209565     0.97600
C227        C  0.11781299  0.49648621  0.29942741     0.98300
N228        N  0.42192701  0.48044512  0.36340115    -0.06900
N229        N  0.40629808  0.46727494  0.37952665    -0.63200
N230        N  0.42273427  0.01898600  0.31704508    -0.05700
N231        N  0.39963255  0.03197051  0.30388314    -0.63900
N232        N  0.42134667  0.48310508  0.31720280    -0.06400
N233        N  0.39720675  0.47220241  0.30405747    -0.63500
N234        N  0.42142588  0.01821152  0.36338046    -0.05300
N235        N  0.40675747  0.03061889  0.38012337    -0.64200
Mn236      Mn  0.45028407  0.45047107  0.33984270     1.10700
C237        C  0.39716129  0.49663614  0.39037066     0.98800
C238        C  0.38299200  0.50292189  0.29667626     0.98900
N239        N  0.02175866  0.07665523  0.32030405    -0.06400
N240        N  0.03598564  0.09946451  0.30751368    -0.61800
N241        N  0.48037828  0.07544559  0.36502019    -0.05700
N242        N  0.46647589  0.09090882  0.38115328    -0.58500
N243        N  0.01703318  0.07383920  0.36656286    -0.07000
N244        N  0.02755737  0.08898322  0.38348878    -0.61300
N245        N  0.48446567  0.07820247  0.31892044    -0.06000
N246        N  0.47376876  0.10225056  0.30569498    -0.58500
Mn247      Mn  0.04973856  0.04556769  0.34360193     1.20200
Mn248      Mn  0.45143380  0.04853657  0.34077282     1.10100
Cl249      Cl  0.49944571  0.49757324  0.34096757    -0.86500
C250        C  0.50480543  0.11596330  0.29856516     0.95800
C251        C  0.49543595  0.09907344  0.39240562     0.95600
N252        N  0.99884048  0.19593810  0.50032184    -0.37100
N253        N  0.99459280  0.25161037  0.46986039    -0.57700
N254        N  0.99669869  0.30715777  0.50025064    -0.37100
N255        N  0.99733809  0.25167283  0.53076916    -0.57700
C256        C  0.99050322  0.17596400  0.48403389     0.26400
C257        C  0.99196281  0.17597778  0.51678280     0.26400
C258        C  0.98736683  0.32683783  0.48409250     0.26400
C259        C  0.98872242  0.32689007  0.51671666     0.26400
C260        C  0.00058742  0.22266013  0.45806723     0.35100
C261        C  0.99964984  0.28051263  0.45808923     0.35100
C262        C  0.00333243  0.22292988  0.54256749     0.35100
C263        C  0.00264781  0.28076700  0.54245464     0.35100
C264        C  0.97915158  0.14245937  0.49018530    -0.22400
C265        C  0.98011788  0.14245895  0.51089001    -0.22400
C266        C  0.97388674  0.35980677  0.49031740    -0.22400
C267        C  0.97475932  0.35984864  0.51100126    -0.22400
C268        C  0.00963581  0.23326143  0.43877751    -0.23500
C269        C  0.00896519  0.26990643  0.43878419    -0.23500
C270        C  0.01249995  0.23383786  0.56179219    -0.23500
C271        C  0.01204579  0.27045752  0.56172687    -0.23500
C272        C  0.99412985  0.18690631  0.46380950    -0.18800
C273        C  0.99704166  0.18706727  0.53690198    -0.18800
C274        C  0.99539816  0.31638375  0.53665791    -0.18800
C275        C  0.99233844  0.31618615  0.46394103    -0.18800
H276        H  0.97096492  0.12034111  0.48074867     0.14100
H277        H  0.97281070  0.12036768  0.52050075     0.14100
H278        H  0.96447781  0.38152937  0.48094014     0.14100
H279        H  0.96613613  0.38161863  0.52071681     0.14100
H280        H  0.01525841  0.21635331  0.42588600     0.12400
H281        H  0.01393256  0.28678430  0.42591506     0.12400
H282        H  0.01808205  0.21715719  0.57467969     0.12400
H283        H  0.01708525  0.28749861  0.57458044     0.12400
H284        H  0.01158583  0.22058396  0.50013457     0.25600
H285        H  0.01125240  0.28325197  0.50002827     0.25600
N286        N  0.19824197  0.98650386  0.50079253    -0.37100
N287        N  0.25361298  0.99169043  0.53109995    -0.57700
N288        N  0.30903105  0.99386846  0.50054920    -0.37100
N289        N  0.25369375  0.98985022  0.47028141    -0.57700
C290        C  0.17828356  0.99540806  0.51707871     0.26400
C291        C  0.17824587  0.99397015  0.48442095     0.26400
C292        C  0.32780378  0.00436276  0.51684100     0.26400
C293        C  0.32789551  0.00376005  0.48413711     0.26400
C294        C  0.22495188  0.98498267  0.54293421     0.35100
C295        C  0.28290314  0.98803633  0.54282301     0.35100
C296        C  0.22515734  0.98219510  0.45861193     0.35100
C297        C  0.28307552  0.98620586  0.45846947     0.35100
C298        C  0.14492857  0.00806399  0.51103319    -0.22400
C299        C  0.14490036  0.00714255  0.49034493    -0.22400
C300        C  0.35922568  0.02083737  0.51075847    -0.22400
C301        C  0.35924548  0.02052783  0.49003568    -0.22400
C302        C  0.23602981  0.97690837  0.56224680    -0.23500
C303        C  0.27276477  0.97882973  0.56218517    -0.23500
C304        C  0.23316959  0.47400122  0.43899187    -0.23500
C305        C  0.26990718  0.47346216  0.43894013    -0.23500
C306        C  0.18894467  0.99055489  0.53718669    -0.18800
C307        C  0.18899962  0.98762195  0.46437616    -0.18800
C308        C  0.31811376  0.99627894  0.46409905    -0.18800
C309        C  0.31813042  0.99707126  0.53691119    -0.18800
H310        H  0.12291063  0.01694833  0.52053271     0.14100
H311        H  0.12287479  0.01521921  0.48076739     0.14100
H312        H  0.38002206  0.03173876  0.52024850     0.14100
H313        H  0.38003717  0.03118505  0.48041872     0.14100
H314        H  0.21934040  0.97147305  0.57520432     0.12400
H315        H  0.28986276  0.97522549  0.57513760     0.12400
H316        H  0.21624662  0.46874781  0.42615274     0.12400
H317        H  0.28683664  0.46785834  0.42603580     0.12400
H318        H  0.22261725  0.97265283  0.50088199     0.25600
H319        H  0.28682503  0.97723874  0.50065369     0.25600
C320        C  0.00120981  0.24597823  0.25083608    -0.03000
C321        C  0.47211573  0.32348460  0.28658205    -0.26900
C322        C  0.49882936  0.34902841  0.28329027    -0.14900
C323        C  0.02618179  0.34131629  0.27158038     0.35700
C324        C  0.02619647  0.30930054  0.26037236    -0.26300
C325        C  0.49948714  0.28217121  0.26189740    -0.15500
C326        C  0.47219938  0.29052745  0.27625765     0.36800
N327        N  0.44420982  0.26562502  0.28048646    -0.89800
H328        H  0.45130299  0.32870310  0.29765904     0.17900
H329        H  0.04577819  0.30728344  0.24846554     0.17900
N330        N  0.05338215  0.36774189  0.26811205    -0.88800
H331        H  0.41960075  0.27799777  0.27729142     0.35300
H332        H  0.44470670  0.25982194  0.29583151     0.40400
H333        H  0.04076588  0.39041336  0.26213760     0.40000
H334        H  0.07197753  0.35877567  0.25736686     0.34900
C335        C  0.50377309  0.14623958  0.26583857    -0.26900
C336        C  0.50629722  0.14889158  0.28662820    -0.14900
C337        C  0.01140648  0.18059118  0.29616915     0.35700
C338        C  0.01008183  0.21215240  0.28468855    -0.26300
C339        C  0.50284180  0.21176689  0.26285176    -0.15500
C340        C  0.50283444  0.17695570  0.25387155     0.36800
N341        N  0.50003842  0.17259210  0.23256693    -0.89800
H342        H  0.50202958  0.12007329  0.25880218     0.10300
H343        H  0.01300492  0.23734826  0.29246783     0.17900
N344        N  0.01542055  0.18232126  0.31761546    -0.88800
H345        H  0.47721656  0.15745433  0.22943175     0.35300
H346        H  0.52249792  0.15804593  0.22757285     0.40400
H347        H  0.99198580  0.17224446  0.32408781     0.40000
H348        H  0.01745683  0.20891370  0.32243735     0.34900
C349        C  0.46243029  0.13702199  0.41717002    -0.26900
C350        C  0.49315499  0.11657959  0.41237728    -0.14900
C351        C  0.02060555  0.11451402  0.42677716     0.35700
C352        C  0.01871898  0.13548868  0.44432319    -0.26300
C353        C  0.99052156  0.16002777  0.44741979    -0.15500
C354        C  0.46028482  0.15690029  0.43499859     0.36800
N355        N  0.42848609  0.17817184  0.43863163    -0.89800
H356        H  0.44033717  0.13868485  0.40665026     0.17900
H357        H  0.04010292  0.13380774  0.45528242     0.17900
N358        N  0.04972106  0.08945012  0.42390287    -0.88800
H359        H  0.42797613  0.19872077  0.42802393     0.35300
H360        H  0.42879754  0.19021492  0.45280531     0.40400
H361        H  0.03875075  0.06376703  0.42352586     0.40000
H362        H  0.06718068  0.09001929  0.43615589     0.34900
C363        C  0.01892952  0.36402928  0.44333920    -0.26900
C364        C  0.98895491  0.34314075  0.44778437    -0.14900
C365        C  0.45894261  0.33957328  0.43300096     0.35700
C366        C  0.46116753  0.35910731  0.41513002    -0.26300
C367        C  0.49222647  0.37823266  0.41010258    -0.15500
C368        C  0.02055744  0.38394835  0.42553884     0.36800
N369        N  0.05166008  0.40499083  0.42120952    -0.89800
H370        H  0.04179058  0.36343574  0.45337331     0.17900
H371        H  0.43880682  0.35824722  0.40477085     0.17900
N372        N  0.42680221  0.31957347  0.43680994    -0.88800
H373        H  0.07059050  0.40214656  0.43263007     0.35300
H374        H  0.04355575  0.43189820  0.42128645     0.40400
H375        H  0.42735878  0.30730425  0.45085425     0.40000
H376        H  0.42547631  0.29917164  0.42604144     0.34900
C377        C  0.12288177  0.46495201  0.42251486    -0.26900
C378        C  0.12108689  0.49697872  0.41159619    -0.14900
C379        C  0.13974591  0.02456320  0.41971102     0.35700
C380        C  0.15952178  0.02221181  0.43750521    -0.26300
C381        C  0.16199112  0.99000218  0.44811446    -0.15500
C382        C  0.14134413  0.46270725  0.44073753     0.36800
N383        N  0.14210739  0.42889721  0.45100730    -0.89800
H384        H  0.11073621  0.44105703  0.41654132     0.17900
H385        H  0.17433809  0.04534730  0.44266082     0.17900
N386        N  0.13921056  0.05764035  0.40891067    -0.88800
H387        H  0.11580145  0.42334226  0.45547088     0.35300
H388        H  0.15714712  0.43009254  0.46417314     0.40400
H389        H  0.16570718  0.06432127  0.40539306     0.40000
H390        H  0.12878422  0.07756011  0.41841142     0.34900
C391        C  0.36402876  0.46539906  0.44139514    -0.26900
C392        C  0.34241311  0.49462860  0.44712324    -0.14900
C393        C  0.34302578  0.03159929  0.43509056     0.35700
C394        C  0.36187063  0.03120354  0.41688384    -0.26300
C395        C  0.38015682  0.49574759  0.41042444    -0.15500
C396        C  0.38313164  0.46563554  0.42315498     0.36800
N397        N  0.40511559  0.43535789  0.41748817    -0.89800
H398        H  0.36474313  0.44179077  0.45080082     0.17900
H399        H  0.35935492  0.05408249  0.40701601     0.17900
N400        N  0.32160438  0.06270696  0.43994929    -0.88800
H401        H  0.40384764  0.41536334  0.42840134     0.35300
H402        H  0.43179255  0.44390601  0.41709143     0.40400
H403        H  0.31005349  0.06090681  0.45420671     0.40000
H404        H  0.30056372  0.06403825  0.42961905     0.34900
C405        C  0.12523407  0.46870202  0.57985158    -0.26900
C406        C  0.11966238  0.00000993  0.58855347    -0.14900
C407        C  0.13657217  0.03056445  0.58050706     0.35700
C408        C  0.15791664  0.02687872  0.56317612    -0.26300
C409        C  0.16173499  0.99376472  0.55338781    -0.15500
C410        C  0.14573812  0.46533720  0.56232993     0.36800
N411        N  0.15348082  0.42989765  0.55480246    -0.89800
H412        H  0.11594639  0.44448362  0.58699640     0.17900
H413        H  0.17239982  0.04976541  0.55746812     0.17900
N414        N  0.13319958  0.06487585  0.59023034    -0.88800
H415        H  0.12908218  0.41846267  0.55058920     0.35300
H416        H  0.16929553  0.43043580  0.54185973     0.40400
H417        H  0.10663632  0.07353012  0.58842965     0.40000
H418        H  0.14913898  0.08386686  0.58300991     0.34900
C419        C  0.34902218  0.03252608  0.56301223    -0.26900
C420        C  0.34543463  0.99974875  0.55296754    -0.14900
C421        C  0.35395915  0.46132176  0.56333769     0.35700
C422        C  0.37137753  0.46405044  0.58184290    -0.26300
C423        C  0.38039493  0.00288613  0.59043673    -0.15500
C424        C  0.36715048  0.03464680  0.58143723     0.36800
N425        N  0.37149353  0.06876995  0.59109627    -0.89800
H426        H  0.33641656  0.05626996  0.55678943     0.17900
H427        H  0.37629774  0.43974882  0.59027417     0.17900
N428        N  0.34380928  0.42631720  0.55636780    -0.88800
H429        H  0.35909626  0.08910010  0.58280135     0.35300
H430        H  0.39897916  0.07418552  0.59078492     0.40400
H431        H  0.33188891  0.42745719  0.54222151     0.40000
H432        H  0.36738294  0.41121208  0.55450697     0.34900
C433        C  0.02106979  0.11954951  0.57707022    -0.26900
C434        C  0.48779234  0.12364621  0.59113842    -0.14900
C435        C  0.45867368  0.14619753  0.58579875     0.35700
C436        C  0.45954215  0.16399987  0.56727767    -0.26300
C437        C  0.99361934  0.16071003  0.55343948    -0.15500
C438        C  0.02294049  0.13903655  0.55909328     0.36800
N439        N  0.05494427  0.13799929  0.54694337    -0.89800
H440        H  0.04380263  0.10308027  0.58144546     0.17900
H441        H  0.43798309  0.18237207  0.56339020     0.17900
N442        N  0.42995512  0.15350846  0.59977232    -0.88800
H443        H  0.07406276  0.12071578  0.55318801     0.35300
H444        H  0.06615191  0.16359763  0.54722278     0.40400
H445        H  0.41473833  0.13034648  0.60114047     0.40000
H446        H  0.41251262  0.17308765  0.59410833     0.34900
C447        C  0.46512203  0.37310191  0.58075504    -0.26900
C448        C  0.49858028  0.38385215  0.58835728    -0.14900
C449        C  0.02797924  0.37958775  0.57636186     0.35700
C450        C  0.02545168  0.36051726  0.55823829    -0.26300
C451        C  0.99354401  0.34355415  0.55281091    -0.15500
C452        C  0.46248664  0.35336315  0.56290100     0.36800
N453        N  0.42756605  0.34137006  0.55677768    -0.89800
H454        H  0.44069776  0.37891157  0.58910124     0.17900
H455        H  0.04914362  0.35675016  0.54892275     0.17900
N456        N  0.06177729  0.39469752  0.58216934    -0.88800
H457        H  0.41864970  0.32300028  0.56745660     0.35300
H458        H  0.42850438  0.32791540  0.54301993     0.40400
H459        H  0.08065323  0.39176236  0.57061028     0.40000
H460        H  0.07165860  0.37947042  0.59410238     0.34900
C461        C  0.06932537  0.24394514  0.24700112    -0.26900
C462        C  0.03562738  0.24451130  0.23703453    -0.14900
C463        C  0.03651048  0.24160136  0.21563848     0.35700
C464        C  0.06958542  0.24212449  0.20536204    -0.26300
C465        C  0.10225551  0.24388454  0.21558985    -0.15500
C466        C  0.10218471  0.24426901  0.23671699     0.36800
N467        N  0.13471687  0.24496529  0.24830862    -0.89800
H468        H  0.07006228  0.24457066  0.26326080     0.17900
H469        H  0.06973384  0.24057603  0.18910077     0.17900
N470        N  0.00478598  0.23595447  0.20403095    -0.88800
H471        H  0.13492786  0.26909903  0.25633297     0.35300
H472        H  0.15759402  0.24477062  0.23920759     0.40400
H473        H  0.00769849  0.21176127  0.19620286     0.40000
H474        H  0.00279766  0.25651179  0.19346387     0.34900
C475        C  0.40201791  0.22660938  0.22938559    -0.26900
C476        C  0.39799598  0.25381450  0.21532457    -0.14900
C477        C  0.42517924  0.27958081  0.21333872     0.35700
C478        C  0.45669908  0.27622122  0.22481958    -0.26300
C479        C  0.46262110  0.24713512  0.23801230    -0.15500
C480        C  0.43273897  0.22379297  0.24134113     0.36800
N481        N  0.43141642  0.19884765  0.25760877    -0.89800
H482        H  0.38032134  0.20783013  0.23166812     0.17900
H483        H  0.47771156  0.29580223  0.22286254     0.17900
N484        N  0.42133270  0.30842164  0.19926472    -0.88800
H485        H  0.42646563  0.17335906  0.25170978     0.35300
H486        H  0.40966142  0.20568986  0.26687387     0.40400
H487        H  0.42124736  0.29721673  0.18486373     0.40000
H488        H  0.44355478  0.32535666  0.19987934     0.34900
C489        C  0.22428253  0.10974236  0.05770474    -0.26900
C490        C  0.25640409  0.09380852  0.05104967    -0.14900
C491        C  0.28852376  0.09996698  0.06172789     0.35700
C492        C  0.28724085  0.12013522  0.07950327    -0.26300
C493        C  0.25460499  0.13385981  0.08709175    -0.15500
C494        C  0.22295473  0.12982109  0.07558590     0.36800
N495        N  0.18943296  0.14525892  0.08224966    -0.89800
H496        H  0.19977702  0.10485630  0.04942618     0.17900
H497        H  0.31186053  0.12372823  0.08787407     0.17900
N498        N  0.32258766  0.08531024  0.05536078    -0.88800
H499        H  0.16872719  0.13883516  0.07233852     0.35300
H500        H  0.19205074  0.17311184  0.08178386     0.40400
H501        H  0.32065159  0.07175980  0.04167508     0.40000
H502        H  0.33063380  0.06650201  0.06605706     0.34900
C503        C  0.22243244  0.39633813  0.05979862    -0.26900
C504        C  0.25529331  0.41088065  0.05384688    -0.14900
C505        C  0.28614215  0.40488765  0.06555391     0.35700
C506        C  0.28317531  0.38534078  0.08345154    -0.26300
C507        C  0.24992441  0.37172397  0.08991338    -0.15500
C508        C  0.21944302  0.37697256  0.07771689     0.36800
N509        N  0.18521324  0.36328066  0.08351670    -0.89800
H510        H  0.19859473  0.40146540  0.05093033     0.17900
H511        H  0.30681778  0.38170348  0.09266921     0.17900
N512        N  0.31988409  0.42013500  0.05965442    -0.88800
H513        H  0.17634050  0.34682697  0.07187017     0.35300
H514        H  0.16723988  0.38486174  0.08480607     0.40400
H515        H  0.32756237  0.40814313  0.04607505     0.40000
H516        H  0.33988410  0.41374186  0.07006197     0.34900
C517        C  0.22022064  0.11889515  0.91898887    -0.26900
C518        C  0.25340640  0.12486328  0.90949197    -0.14900
C519        C  0.28538893  0.11324222  0.91899788     0.35700
C520        C  0.28311642  0.09459235  0.93720626    -0.26300
C521        C  0.24981201  0.08761963  0.94614007    -0.15500
C522        C  0.21801545  0.10089513  0.93727924     0.36800
N523        N  0.18311034  0.09579307  0.94611085    -0.89800
H524        H  0.19552768  0.12766277  0.91198877     0.17900
H525        H  0.30732519  0.08400689  0.94406162     0.17900
N526        N  0.31994899  0.11947518  0.91002948    -0.88800
H527        H  0.16876334  0.07865335  0.93669664     0.35300
H528        H  0.18474255  0.08347611  0.96011903     0.40400
H529        H  0.32183447  0.10338220  0.89717984     0.40000
H530        H  0.34056684  0.11100161  0.91956513     0.34900
C531        C  0.22597896  0.38909945  0.94335543    -0.26900
C532        C  0.25659662  0.40864790  0.94826450    -0.14900
C533        C  0.28736577  0.40641926  0.93590504     0.35700
C534        C  0.28631726  0.38558061  0.91832232    -0.26300
C535        C  0.25492156  0.36754231  0.91272091    -0.15500
C536        C  0.22484377  0.36836957  0.92575035     0.36800
N537        N  0.19323388  0.34829733  0.92108751    -0.89800
H538        H  0.20245404  0.39114331  0.95294508     0.17900
H539        H  0.30966292  0.38462002  0.90856513     0.17900
N540        N  0.31918746  0.42595884  0.94105060    -0.88800
H541        H  0.17346174  0.35235749  0.93206814     0.35300
H542        H  0.20043968  0.32117810  0.92167336     0.40400
H543        H  0.31325417  0.45326901  0.93990539     0.40000
H544        H  0.33971013  0.42067448  0.93065219     0.34900
C545        C  0.50228651  0.21847019  0.71666397    -0.26900
C546        C  0.50108869  0.21790988  0.73790557    -0.14900
C547        C  0.99670509  0.18177259  0.74627783     0.35700
C548        C  0.99535633  0.15057958  0.73454818    -0.26300
C549        C  0.49778560  0.15346532  0.71480556    -0.15500
C550        C  0.50162908  0.18667435  0.70516014     0.36800
N551        N  0.50501855  0.18795361  0.68366853    -0.89800
H552        H  0.50338680  0.24348183  0.70869696     0.17900
H553        H  0.99339823  0.12478628  0.74186631     0.17900
N554        N  0.99527315  0.17828221  0.76768223    -0.88800
H555        H  0.50836202  0.21429053  0.67883548     0.35300
H556        H  0.48083142  0.17902222  0.67753784     0.40400
H557        H  0.01639674  0.16155068  0.77218056     0.40000
H558        H  0.97111283  0.16586493  0.77146966     0.34900
C559        C  0.03321056  0.32663740  0.71387300    -0.26900
C560        C  0.50674659  0.35371365  0.71588474    -0.14900
C561        C  0.47852456  0.34745276  0.72946009     0.35700
C562        C  0.47831055  0.31587555  0.74076095    -0.26300
C563        C  0.50475740  0.28850212  0.73842791    -0.15500
C564        C  0.03295932  0.29463378  0.72503067     0.36800
N565        N  0.06293624  0.27048151  0.72327368    -0.89800
H566        H  0.05557876  0.33171547  0.70385382     0.17900
H567        H  0.45729438  0.31381929  0.75183340     0.17900
N568        N  0.45017380  0.37356034  0.73199656    -0.88800
H569        H  0.08601768  0.28410936  0.72772238     0.35300
H570        H  0.06599356  0.26334828  0.70816299     0.40400
H571        H  0.46148511  0.39657759  0.73819211     0.40000
H572        H  0.43084237  0.36470258  0.74224678     0.34900
C573        C  0.06405581  0.22345917  0.76096917    -0.26900
C574        C  0.03748421  0.25068793  0.76328848    -0.14900
C575        C  0.04599109  0.27956183  0.77642555     0.35700
C576        C  0.07804465  0.27907552  0.78757484    -0.26300
C577        C  0.10265300  0.25050671  0.78607195    -0.15500
C578        C  0.09552868  0.22266091  0.77230997     0.36800
N579        N  0.12028654  0.19363238  0.76886180    -0.89800
H580        H  0.06151723  0.20243109  0.74993641     0.17900
H581        H  0.08335527  0.30111550  0.79774410     0.17900
N582        N  0.02213688  0.30967311  0.77853126    -0.88800
H583        H  0.12233839  0.17833640  0.78191153     0.35300
H584        H  0.14541157  0.20412545  0.76523812     0.40400
H585        H  0.03611422  0.33267529  0.77437776     0.40000
H586        H  0.01503577  0.31224294  0.79367191     0.34900
C587        C  0.40180497  0.24990287  0.76552819    -0.26900
C588        C  0.40262542  0.24986188  0.78643491    -0.14900
C589        C  0.43608322  0.25013015  0.79641161     0.35700
C590        C  0.46793216  0.25068337  0.78508940    -0.26300
C591        C  0.46770869  0.25206487  0.76385994    -0.15500
C592        C  0.43356049  0.25064959  0.75420859     0.36800
N593        N  0.43094898  0.25070157  0.73274434    -0.89800
H594        H  0.37618105  0.24943007  0.75784392     0.17900
H595        H  0.49280761  0.24912207  0.79330563     0.17900
N596        N  0.43901207  0.24920190  0.81794285    -0.88800
H597        H  0.41531107  0.27278017  0.72846562     0.35300
H598        H  0.41757381  0.22749605  0.72830637     0.40400
H599        H  0.41393688  0.24847943  0.82497234     0.40000
H600        H  0.45113572  0.27300674  0.82253420     0.34900
C601        C  0.31154337  0.02167863  0.74381227    -0.26900
C602        C  0.28311082  0.99830206  0.73843749    -0.14900
C603        C  0.29047077  0.46972759  0.72443330     0.35700
C604        C  0.32307408  0.47029805  0.71354032    -0.26300
C605        C  0.35115009  0.99703338  0.71817528    -0.15500
C606        C  0.34439995  0.02197544  0.73365136     0.36800
N607        N  0.37093548  0.04714492  0.74003699    -0.89800
H608        H  0.30940102  0.03970654  0.75647726     0.17900
H609        H  0.32795154  0.44997959  0.70216495     0.17900
N610        N  0.26562519  0.44147372  0.72061686    -0.88800
H611        H  0.37641377  0.06464876  0.72826154     0.35300
H612        H  0.39442009  0.03310426  0.74372230     0.40400
H613        H  0.27852363  0.41713432  0.72365905     0.40000
H614        H  0.25910689  0.44175783  0.70535509     0.34900
C615        C  0.21425278  0.50526787  0.71627227    -0.26900
C616        C  0.21224525  0.00252876  0.73662947    -0.14900
C617        C  0.17718890  0.00448370  0.74538037     0.35700
C618        C  0.14652950  0.00516069  0.73325812    -0.26300
C619        C  0.14931645  0.00414136  0.71241276    -0.15500
C620        C  0.18363748  0.50616088  0.70399786     0.36800
N621        N  0.18881770  0.50802828  0.68260857    -0.89800
H622        H  0.23995212  0.50765637  0.70889190     0.17900
H623        H  0.12019497  0.00563030  0.74028004     0.17900
N624        N  0.17237914  0.00417153  0.76670199    -0.88800
H625        H  0.20121108  0.53239665  0.67947548     0.35300
H626        H  0.16448222  0.50816072  0.67487796     0.40400
H627        H  0.15654992  0.98220742  0.77050182     0.40000
H628        H  0.15836940  0.02746619  0.77084973     0.34900
C629        C  0.24695510  0.06678845  0.75321142    -0.26900
C630        C  0.24422480  0.03374767  0.76354736    -0.14900
C631        C  0.23960266  0.03556085  0.78481286     0.35700
C632        C  0.24200306  0.06871861  0.79476973    -0.26300
C633        C  0.24828594  0.10047392  0.78430268    -0.15500
C634        C  0.25056900  0.09956766  0.76321438     0.36800
N635        N  0.25664413  0.13111718  0.75139341    -0.89800
H636        H  0.24884681  0.06677483  0.73696952     0.17900
H637        H  0.23862202  0.06968349  0.81094097     0.17900
N638        N  0.23044257  0.00485542  0.79649930    -0.88800
H639        H  0.28116266  0.12759370  0.74392100     0.35300
H640        H  0.25930984  0.15397821  0.76034079     0.40400
H641        H  0.20587031  0.00994514  0.80366351     0.40000
H642        H  0.24990986  0.00165258  0.80764888     0.34900
C643        C  0.27488388  0.45614915  0.77662964    -0.26900
C644        C  0.24599727  0.46183708  0.76322446    -0.14900
C645        C  0.22173250  0.43255390  0.76061725     0.35700
C646        C  0.22394797  0.40247831  0.77316201    -0.26300
C647        C  0.25151884  0.39839851  0.78713171    -0.15500
C648        C  0.27789304  0.42520123  0.78853556     0.36800
N649        N  0.30695943  0.42177284  0.80256347    -0.89800
H650        H  0.29495456  0.47678113  0.77822522     0.17900
H651        H  0.20454395  0.38122405  0.77132684     0.17900
N652        N  0.19635509  0.43117592  0.74453434    -0.88800
H653        H  0.32216197  0.44519043  0.80295145     0.35300
H654        H  0.32418884  0.40168161  0.79714500     0.40400
H655        H  0.17075965  0.42736824  0.75067029     0.40000
H656        H  0.20242220  0.40886327  0.73557494     0.34900
C657        C  0.09330213  0.21796001  0.06372712    -0.26900
C658        C  0.09192714  0.25035069  0.05320129    -0.14900
C659        C  0.11034837  0.28049858  0.06059361     0.35700
C660        C  0.12827955  0.27786163  0.07890910    -0.26300
C661        C  0.12859969  0.24591870  0.08995603    -0.15500
C662        C  0.11121287  0.21541699  0.08216649     0.36800
N663        N  0.11019153  0.18260776  0.09335468    -0.89800
H664        H  0.07845009  0.19521765  0.05807970     0.17900
H665        H  0.14132552  0.30138050  0.08482069     0.17900
N666        N  0.10993235  0.31451005  0.05051403    -0.88800
H667        H  0.09683223  0.16271790  0.08526457     0.35300
H668        H  0.09487932  0.18742959  0.10629019     0.40400
H669        H  0.09553747  0.31345685  0.03710906     0.40000
H670        H  0.13640234  0.32034056  0.04651090     0.34900
C671        C  0.38608263  0.28663743  0.05760911    -0.26900
C672        C  0.40719939  0.25691580  0.05226447    -0.14900
C673        C  0.40762282  0.22644973  0.06453385     0.35700
C674        C  0.38777888  0.22645006  0.08237779    -0.26300
C675        C  0.36809416  0.25686918  0.08849945    -0.15500
C676        C  0.36670546  0.28710314  0.07564167     0.36800
N677        N  0.34618833  0.31864106  0.08039077    -0.89800
H678        H  0.38612858  0.31025698  0.04820332     0.17900
H679        H  0.38905955  0.20297097  0.09186242     0.17900
N680        N  0.42953327  0.19607593  0.05927190    -0.88800
H681        H  0.35669808  0.33044343  0.09334581     0.35300
H682        H  0.31955992  0.31133589  0.08294747     0.40400
H683        H  0.41294660  0.17371044  0.05832561     0.40000
H684        H  0.44788415  0.19174822  0.07089435     0.34900
C685        C  0.09869412  0.21524015  0.93858916    -0.26900
C686        C  0.09300054  0.24807529  0.94837276    -0.14900
C687        C  0.10960791  0.27923994  0.94104499     0.35700
C688        C  0.12931359  0.27722840  0.92320550    -0.26300
C689        C  0.13407106  0.24473542  0.91281960    -0.15500
C690        C  0.11967761  0.21302190  0.92105900     0.36800
N691        N  0.12523680  0.17897686  0.91135850    -0.89800
H692        H  0.08583214  0.19146879  0.94438488     0.17900
H693        H  0.14001663  0.30167336  0.91710064     0.17900
N694        N  0.10625694  0.31343830  0.95093762    -0.88800
H695        H  0.11151530  0.15878254  0.91895445     0.35300
H696        H  0.15252810  0.17275339  0.91264587     0.40400
H697        H  0.09192867  0.31172461  0.96439205     0.40000
H698        H  0.09168641  0.33044397  0.94150202     0.34900
C699        C  0.38961734  0.27350946  0.94202878    -0.26900
C700        C  0.40946101  0.24303265  0.94738012    -0.14900
C701        C  0.40726269  0.21159539  0.93557016     0.35700
C702        C  0.38752095  0.21240369  0.91774787    -0.26300
C703        C  0.36986305  0.24379945  0.91150449    -0.15500
C704        C  0.36939961  0.27416007  0.92430510     0.36800
N705        N  0.34890283  0.30564062  0.91920086    -0.89800
H706        H  0.39113072  0.29733820  0.95133311     0.17900
H707        H  0.38710215  0.18860485  0.90838245     0.17900
N708        N  0.42520454  0.17878080  0.94098072    -0.88800
H709        H  0.35199944  0.32563027  0.93009059     0.35300
H710        H  0.32175474  0.29867119  0.91943701     0.40400
H711        H  0.43771192  0.18077056  0.95493915     0.40000
H712        H  0.44535118  0.17384881  0.93032622     0.34900
C713        C  0.28362485  0.50983998  0.28299135    -0.26900
C714        C  0.28428969  0.50235328  0.26212637    -0.14900
C715        C  0.32076602  0.99959360  0.25197316     0.35700
C716        C  0.35231313  0.99980414  0.26338377    -0.26300
C717        C  0.34885924  0.50410837  0.28533272    -0.15500
C718        C  0.31510011  0.51031997  0.29463749     0.36800
N719        N  0.31139191  0.51646012  0.31588446    -0.89800
H720        H  0.25865504  0.51597159  0.29061238     0.17900
H721        H  0.37805882  0.99693944  0.25583996     0.17900
N722        N  0.32403211  0.99546571  0.23068078    -0.88800
H723        H  0.30153740  0.54252178  0.31791902     0.35300
H724        H  0.33598978  0.51498639  0.32330995     0.40400
H725        H  0.33795003  0.97156834  0.22767771     0.40000
H726        H  0.33940662  0.01661500  0.22519937     0.34900
C727        C  0.15530343  0.02414993  0.27184830    -0.26900
C728        C  0.15044579  0.49672093  0.28659270    -0.14900
C729        C  0.17884860  0.47197432  0.28900019     0.35700
C730        C  0.20961806  0.47450300  0.27673379    -0.26300
C731        C  0.21370751  0.50173879  0.26216533    -0.15500
C732        C  0.18544312  0.02619306  0.25908909     0.36800
N733        N  0.18348235  0.05114475  0.24284390    -0.89800
H734        H  0.13324121  0.04290571  0.26974271     0.17900
H735        H  0.23116569  0.45520282  0.27878846     0.17900
N736        N  0.17684146  0.44484422  0.30419683    -0.88800
H737        H  0.17973404  0.07680919  0.24888468     0.35300
H738        H  0.16088648  0.04523704  0.23419194     0.40400
H739        H  0.17663097  0.45779316  0.31814163     0.40000
H740        H  0.19984724  0.42855078  0.30390197     0.34900
C741        C  0.25595186  0.06893132  0.24575563    -0.26900
C742        C  0.25461285  0.03573210  0.23531872    -0.14900
C743        C  0.25968798  0.03679832  0.21406985     0.35700
C744        C  0.26082489  0.06993998  0.20417386    -0.26300
C745        C  0.25861584  0.10233551  0.21472165    -0.15500
C746        C  0.25720030  0.10189289  0.23584533     0.36800
N747        N  0.25682350  0.13410950  0.24777488    -0.89800
H748        H  0.25421291  0.06928052  0.26199973     0.17900
H749        H  0.26357636  0.07034295  0.18796445     0.17900
N750        N  0.26583769  0.00510329  0.20233092    -0.88800
H751        H  0.23214372  0.13544232  0.25529492     0.35300
H752        H  0.25847977  0.15703687  0.23891947     0.40400
H753        H  0.29108376  0.00710133  0.19549608     0.40000
H754        H  0.24688381  0.00451023  0.19080819     0.34900
C755        C  0.21650042  0.42335911  0.21395967    -0.26900
C756        C  0.24222573  0.39644740  0.21739058    -0.14900
C757        C  0.26780215  0.40174111  0.23268370     0.35700
C758        C  0.26946227  0.43500399  0.24242253    -0.26300
C759        C  0.24652330  0.46420651  0.23749748    -0.15500
C760        C  0.21792666  0.45656883  0.22401370     0.36800
N761        N  0.19020871  0.48247441  0.22030509    -0.89800
H762        H  0.19564682  0.41910427  0.20291167     0.17900
H763        H  0.28855556  0.43691233  0.25451698     0.17900
N764        N  0.29201701  0.37385704  0.23921157    -0.88800
H765        H  0.16572517  0.47136497  0.22469646     0.35300
H766        H  0.18886270  0.48718219  0.20487837     0.40400
H767        H  0.28606074  0.34922837  0.23261263     0.40000
H768        H  0.28765494  0.37008520  0.25455709     0.34900
C769        C  0.25089806  0.00144775  0.24852346    -0.03000
N770        N  0.44260553  0.76066883  0.00090704    -0.37100
N771        N  0.99753077  0.75206628  0.96982444    -0.57700
N772        N  0.05490424  0.75504203  0.99924838    -0.37100
N773        N  0.00108027  0.75476400  0.03089236    -0.57700
C774        C  0.42301845  0.75151759  0.98467614     0.26400
C775        C  0.42315977  0.75198023  0.01730362     0.26400
C776        C  0.07437892  0.74790437  0.98253580     0.26400
C777        C  0.07608560  0.74809611  0.01524056     0.26400
C778        C  0.46894883  0.76422083  0.95860104     0.35100
C779        C  0.02574078  0.75705303  0.95731086     0.35100
C780        C  0.46918305  0.76557261  0.04303392     0.35100
C781        C  0.03075084  0.76100834  0.04190542     0.35100
C782        C  0.39044838  0.73743670  0.99079480    -0.22400
C783        C  0.39052595  0.73774953  0.01147004    -0.22400
C784        C  0.10879326  0.73717337  0.98795808    -0.22400
C785        C  0.10978393  0.73708288  0.00864500    -0.22400
C786        C  0.47926778  0.77231814  0.93915296    -0.23500
C787        C  0.01355854  0.76395217  0.93804106    -0.23500
C788        C  0.47969797  0.77507050  0.06226737    -0.23500
C789        C  0.02122018  0.77149665  0.06121883    -0.23500
C790        C  0.43336822  0.75691456  0.96455124    -0.18800
C791        C  0.43354522  0.75834674  0.03730643    -0.18800
C792        C  0.06624544  0.75356518  0.03553552    -0.18800
C793        C  0.06235476  0.75287265  0.96261935    -0.18800
H794        H  0.36889698  0.72795698  0.98135068     0.14100
H795        H  0.36903060  0.72859069  0.02110036     0.14100
H796        H  0.13098374  0.73031731  0.97808466     0.14100
H797        H  0.13283538  0.73028623  0.01777230     0.14100
H798        H  0.46214892  0.77643548  0.92625261     0.12400
H799        H  0.02940901  0.76817941  0.92462568     0.12400
H800        H  0.46267445  0.78041148  0.07516508     0.12400
H801        H  0.03889530  0.77754447  0.07362340     0.12400
H802        H  0.46613911  0.77545152  0.00081648     0.25600
H803        H  0.02994760  0.76764901  0.99965390     0.25600
C804        C  0.24573982  0.49777432  0.75103691    -0.03000
C805        C  0.99984180  0.75044152  0.75117203    -0.03000
N806        N  0.25007058  0.55715106  0.99996155    -0.37100
N807        N  0.25199311  0.00041448  0.03055929    -0.57700
N808        N  0.24648900  0.94326881  0.00083398    -0.37100
N809        N  0.24679957  0.99708867  0.96956706    -0.57700
C810        C  0.25879386  0.57778160  0.01588751     0.26400
C811        C  0.25558368  0.57685210  0.98327218     0.26400
C812        C  0.25410155  0.92383300  0.01734949     0.26400
C813        C  0.25309484  0.92218419  0.98466529     0.26400
C814        C  0.25168981  0.53201439  0.04274582     0.35100
C815        C  0.24611631  0.97235721  0.04284590     0.35100
C816        C  0.24409619  0.52930437  0.95782712     0.35100
C817        C  0.24044655  0.96764745  0.95835792     0.35100
C818        C  0.26940770  0.61125135  0.00930927    -0.22400
C819        C  0.26732202  0.61069055  0.98867092    -0.22400
C820        C  0.26474641  0.88955287  0.01167847    -0.22400
C821        C  0.26430558  0.88856974  0.99098035    -0.22400
C822        C  0.24567862  0.52222251  0.06252844    -0.23500
C823        C  0.23883766  0.98440262  0.06218079    -0.23500
C824        C  0.23633541  0.51773009  0.93851437    -0.23500
C825        C  0.23069986  0.97735078  0.93904568    -0.23500
C826        C  0.25572928  0.56770379  0.03620233    -0.18800
C827        C  0.24867978  0.56549000  0.96342282    -0.18800
C828        C  0.24776219  0.93221099  0.96447055    -0.18800
C829        C  0.24997057  0.93592163  0.03734179    -0.18800
H830        H  0.27768822  0.63374792  0.01843665     0.14100
H831        H  0.27365219  0.63271238  0.97879743     0.14100
H832        H  0.27210136  0.86758513  0.02142800     0.14100
H833        H  0.27115464  0.86566737  0.98166350     0.14100
H834        H  0.24193434  0.53960627  0.07542674     0.12400
H835        H  0.23374867  0.96852119  0.07542528     0.12400
H836        H  0.23108336  0.53380180  0.92535853     0.12400
H837        H  0.22496054  0.95986198  0.92647724     0.12400
H838        H  0.23729041  0.53255505  0.00059065     0.25600
H839        H  0.23397615  0.96826094  0.00073550     0.25600
N840        N  0.23465157  0.82618182  0.86488628    -0.06700
N841        N  0.22219447  0.84144307  0.88142315    -0.58800
N842        N  0.27056497  0.82777371  0.81893408    -0.06300
N843        N  0.28338147  0.85170224  0.80632747    -0.60900
N844        N  0.23518355  0.82806627  0.81866620    -0.05900
N845        N  0.22334489  0.85203516  0.80569768    -0.58800
N846        N  0.26992308  0.82586422  0.86488605    -0.05600
N847        N  0.28224610  0.84099985  0.88138513    -0.61300
C848        C  0.25216050  0.85045397  0.89161473     0.95500
C849        C  0.25369048  0.86648650  0.79804152     0.95300
N850        N  0.33033549  0.73118566  0.81853926    -0.06800
N851        N  0.35365991  0.71886310  0.80516625    -0.59400
N852        N  0.32776439  0.76640340  0.86494735    -0.05000
N853        N  0.34156599  0.77906672  0.88170731    -0.60600
N854        N  0.32789223  0.73119920  0.86504264    -0.06900
N855        N  0.34192506  0.71925076  0.88198502    -0.59600
N856        N  0.33029718  0.76644837  0.81873622    -0.04600
N857        N  0.35353216  0.77872232  0.80550460    -0.60700
Mn858      Mn  0.30052692  0.79730979  0.84164429     1.18400
C859        C  0.36744016  0.74880608  0.79690696     0.97600
C860        C  0.35023750  0.74947817  0.89226737     0.98300
N861        N  0.17361696  0.76858509  0.81868539    -0.06900
N862        N  0.14928095  0.78103560  0.80603512    -0.63200
N863        N  0.17595441  0.73288372  0.86466157    -0.05700
N864        N  0.16029367  0.72052215  0.88098001    -0.63900
N865        N  0.17592366  0.76806563  0.86483813    -0.06400
N866        N  0.16029736  0.78034273  0.88133478    -0.63500
N867        N  0.17389392  0.73332399  0.81848872    -0.05300
N868        N  0.15001324  0.72126171  0.80559170    -0.64200
Mn869      Mn  0.20399456  0.79857495  0.84152573     1.10700
C870        C  0.13507250  0.75120038  0.79770238     0.98800
C871        C  0.15068079  0.75037190  0.89130991     0.98900
N872        N  0.26948987  0.67236979  0.86404615    -0.06400
N873        N  0.28188728  0.65521583  0.87985079    -0.61800
N874        N  0.23403276  0.67197418  0.81806947    -0.05700
N875        N  0.22099022  0.64871792  0.80509262    -0.58500
N876        N  0.26943429  0.67082117  0.81797758    -0.07000
N877        N  0.28099701  0.64649099  0.80489242    -0.61300
N878        N  0.23422377  0.67276791  0.86412700    -0.06000
N879        N  0.22189093  0.65574831  0.88001838    -0.58500
Mn880      Mn  0.30032185  0.70056511  0.84117689     1.20200
Mn881      Mn  0.20374372  0.70206478  0.84114517     1.10100
Cl882      Cl  0.25213751  0.74959752  0.84102889    -0.86500
C883        C  0.25196986  0.64483687  0.88970857     0.95800
C884        C  0.25045094  0.63350220  0.79665356     0.95600
N885        N  0.22559738  0.82791273  0.18210648    -0.06700
N886        N  0.21271783  0.85108973  0.19542833    -0.58800
N887        N  0.26142405  0.82761437  0.13631558    -0.06300
N888        N  0.27381698  0.84505583  0.12062559    -0.60900
N889        N  0.22618882  0.82645316  0.13592003    -0.05900
N890        N  0.21390353  0.84305768  0.11984350    -0.58800
N891        N  0.26098156  0.82819027  0.18222064    -0.05600
N892        N  0.27275841  0.85132002  0.19559644    -0.61300
C893        C  0.24249729  0.86496665  0.20403353     0.95500
C894        C  0.24394740  0.85464194  0.11042662     0.95300
N895        N  0.32318258  0.73538945  0.13538798    -0.06800
N896        N  0.33848474  0.72393260  0.11860476    -0.59400
N897        N  0.32458612  0.77027765  0.18177851    -0.05000
N898        N  0.34851165  0.78319014  0.19445565    -0.60600
N899        N  0.32560088  0.73502590  0.18177994    -0.06900
N900        N  0.34993374  0.72333577  0.19461417    -0.59600
N901        N  0.32164938  0.77052621  0.13565590    -0.04600
N902        N  0.33577044  0.78367299  0.11911408    -0.60700
Mn903      Mn  0.29286178  0.79987451  0.15924643     1.18400
C904        C  0.34618369  0.75440015  0.10855312     0.97600
C905        C  0.36396451  0.75361531  0.20249699     0.98300
N906        N  0.16945916  0.76532450  0.13561498    -0.06900
N907        N  0.15345557  0.77692104  0.11919897    -0.63200
N908        N  0.16893514  0.73015579  0.18192414    -0.05700
N909        N  0.14662145  0.71710334  0.19544062    -0.63900
N910        N  0.16735668  0.76542235  0.18194333    -0.06400
N911        N  0.14394938  0.77693350  0.19551413    -0.63500
N912        N  0.17058183  0.73012974  0.13574069    -0.05300
N913        N  0.15527762  0.71707546  0.11946428    -0.64200
Mn914      Mn  0.19612947  0.79711617  0.15904644     1.10700
C915        C  0.14452839  0.74653684  0.10931302     0.98800
C916        C  0.13178465  0.74655586  0.20409456     0.98900
N917        N  0.26739250  0.67287891  0.18172221    -0.06400
N918        N  0.28085093  0.65022610  0.19494265    -0.61800
N919        N  0.23198460  0.67378001  0.13537371    -0.05700
N920        N  0.22061148  0.65896322  0.11854031    -0.58500
N921        N  0.26723935  0.67493460  0.13553425    -0.07000
N922        N  0.28059279  0.66086162  0.11890391    -0.61300
N923        N  0.23204167  0.67153504  0.18178851    -0.06000
N924        N  0.22088395  0.64790259  0.19509514    -0.58500
Mn925      Mn  0.29668479  0.70372511  0.15884094     1.20200
Mn926      Mn  0.20002259  0.70046848  0.15892876     1.10100
Cl927      Cl  0.24637247  0.75030639  0.15936421    -0.86500
C928        C  0.25157442  0.63535789  0.20348153     0.95800
C929        C  0.25127641  0.65107829  0.10839526     0.95600
N930        N  0.47887304  0.57976666  0.68261271    -0.06700
N931        N  0.46645012  0.60297182  0.69604168    -0.58800
N932        N  0.01053218  0.57817296  0.63601359    -0.06300
N933        N  0.02106839  0.59502071  0.61966149    -0.60900
N934        N  0.47709642  0.57856880  0.63623582    -0.05900
N935        N  0.46369154  0.59504704  0.62036490    -0.58800
N936        N  0.01371760  0.57973075  0.68210193    -0.05600
N937        N  0.02607791  0.60414096  0.69464067    -0.61300
C938        C  0.49642509  0.61780959  0.70382123     0.95500
C939        C  0.49308155  0.60580776  0.61002454     0.95300
N940        N  0.07361740  0.98356550  0.63412031    -0.06800
N941        N  0.09037640  0.97108841  0.61804781    -0.59400
N942        N  0.07638957  0.52070779  0.68049981    -0.05000
N943        N  0.10032729  0.53362396  0.69313924    -0.60600
N944        N  0.07761961  0.98412340  0.68010726    -0.06900
N945        N  0.10230717  0.97260323  0.69280102    -0.59600
N946        N  0.07196596  0.52087204  0.63440751    -0.04600
N947        N  0.08774804  0.53324682  0.61807978    -0.60700
Mn948      Mn  0.04392025  0.55069828  0.65839302     1.18400
C949        C  0.09853633  0.50328495  0.60812359     0.97600
C950        C  0.11586532  0.50404697  0.70104884     0.98300
N951        N  0.42059164  0.51738018  0.63696453    -0.06900
N952        N  0.40487662  0.52900788  0.62046960    -0.63200
N953        N  0.42180586  0.98183151  0.68369189    -0.05700
N954        N  0.39903567  0.96852632  0.69691474    -0.63900
N955        N  0.42005245  0.51711610  0.68329936    -0.06400
N956        N  0.39553956  0.52842564  0.69633136    -0.63500
N957        N  0.42074878  0.98384923  0.63738937    -0.05300
N958        N  0.40598600  0.97211199  0.62063736    -0.64200
Mn959      Mn  0.44828056  0.54902467  0.66002190     1.10700
C960        C  0.39668156  0.49868978  0.61032228     0.98800
C961        C  0.38197646  0.49799738  0.70426013     0.98900
N962        N  0.01875761  0.92126355  0.68087647    -0.06400
N963        N  0.03210778  0.89683554  0.69319667    -0.61800
N964        N  0.48166097  0.92670731  0.63529023    -0.05700
N965        N  0.46908374  0.91170871  0.61879298    -0.58500
N966        N  0.01578164  0.92462050  0.63462989    -0.07000
N967        N  0.02725310  0.91035866  0.61757164    -0.61300
N968        N  0.48443549  0.92280723  0.68136775    -0.06000
N969        N  0.47344213  0.89822165  0.69408782    -0.58500
Mn970      Mn  0.04728543  0.95258945  0.65767812     1.20200
Mn971      Mn  0.45133917  0.95295832  0.65964299     1.10100
Cl972      Cl  0.49866323  0.50224101  0.65936270    -0.86500
C973        C  0.50419364  0.88373541  0.70134797     0.95800
C974        C  0.49896670  0.90338090  0.60803100     0.95600
N975        N  0.48185431  0.92160220  0.31771890    -0.06700
N976        N  0.46959464  0.89781724  0.30476900    -0.58800
N977        N  0.01461239  0.92160970  0.36471275    -0.06300
N978        N  0.02499706  0.90518833  0.38125472    -0.60900
N979        N  0.47899530  0.92349864  0.36380281    -0.05900
N980        N  0.46504543  0.90919647  0.38010715    -0.58800
N981        N  0.01781013  0.92124986  0.31829809    -0.05600
N982        N  0.02997055  0.89762917  0.30502968    -0.61300
C983        C  0.49954645  0.88242144  0.29691196     0.95500
C984        C  0.49402439  0.89996814  0.39115412     0.95300
N985        N  0.07516182  0.51492655  0.36619919    -0.06800
N986        N  0.09216403  0.52715319  0.38212480    -0.59400
N987        N  0.08076676  0.97968565  0.32039653    -0.05000
N988        N  0.10489589  0.96736172  0.30739965    -0.60600
N989        N  0.07875110  0.51476987  0.32013780    -0.06900
N990        N  0.10296116  0.52665007  0.30731055    -0.59600
N991        N  0.07540087  0.97831528  0.36665513    -0.04600
N992        N  0.09166035  0.96525396  0.38267902    -0.60700
Mn993      Mn  0.04801669  0.94924171  0.34231530     1.18400
C994        C  0.10231309  0.99479061  0.39287092     0.97600
C995        C  0.11977385  0.99729085  0.29959853     0.98300
N996        N  0.42136244  0.98303268  0.36325544    -0.06900
N997        N  0.40680038  0.97078736  0.37995171    -0.63200
N998        N  0.42159897  0.51838485  0.31808647    -0.05700
N999        N  0.39759930  0.53197758  0.30559537    -0.63900
N1000       N  0.42225754  0.98371519  0.31680937    -0.06400
N1001       N  0.39889290  0.97215862  0.30343298    -0.63500
N1002       N  0.42247261  0.51559365  0.36426164    -0.05300
N1003       N  0.40703173  0.52709415  0.38098027    -0.64200
Mn1004     Mn  0.45032846  0.95220410  0.34010823     1.10700
C1005       C  0.39780981  0.00075905  0.39034795     0.98800
C1006       C  0.38540443  0.00249715  0.29523142     0.98900
N1007       N  0.01968849  0.57709006  0.31987205    -0.06400
N1008       N  0.03338635  0.60099205  0.30754375    -0.61800
N1009       N  0.48221237  0.57335156  0.36589899    -0.05700
N1010       N  0.46951915  0.58920479  0.38223302    -0.58500
N1011       N  0.01656117  0.57434815  0.36609818    -0.07000
N1012       N  0.02757342  0.58846376  0.38322302    -0.61300
N1013       N  0.48354475  0.57731264  0.31970623    -0.06000
N1014       N  0.47199400  0.60179917  0.30696225    -0.58500
Mn1015     Mn  0.04830638  0.54606606  0.34288832     1.20200
Mn1016     Mn  0.45169462  0.54697779  0.34179725     1.10100
Cl1017     Cl  0.49937984  0.99929698  0.34109452    -0.86500
C1018       C  0.50251571  0.61541799  0.29913736     0.95800
C1019       C  0.49925991  0.59799208  0.39274070     0.95600
N1020       N  0.99476567  0.69453312  0.50109084    -0.37100
N1021       N  0.98909618  0.74819604  0.46955078    -0.57700
N1022       N  0.99093767  0.80582025  0.49910627    -0.37100
N1023       N  0.99186088  0.75237610  0.53069341    -0.57700
C1024       C  0.98800071  0.67308627  0.48514788     0.26400
C1025       C  0.98876112  0.67526826  0.51790742     0.26400
C1026       C  0.98253205  0.82476434  0.48251759     0.26400
C1027       C  0.98437139  0.82711903  0.51517814     0.26400
C1028       C  0.99558672  0.71869646  0.45825017     0.35100
C1029       C  0.99343652  0.77649062  0.45722375     0.35100
C1030       C  0.99820371  0.72426330  0.54294324     0.35100
C1031       C  0.99697510  0.78219743  0.54188566     0.35100
C1032       C  0.97864181  0.63933169  0.49187718    -0.22400
C1033       C  0.97903200  0.64072765  0.51257568    -0.22400
C1034       C  0.97108289  0.85886004  0.48806432    -0.22400
C1035       C  0.97229646  0.86036683  0.50873834    -0.22400
C1036       C  0.00387819  0.72834814  0.43869828    -0.23500
C1037       C  0.00249814  0.76489991  0.43804919    -0.23500
C1038       C  0.00734256  0.73634425  0.56195647    -0.23500
C1039       C  0.00638695  0.77293452  0.56131880    -0.23500
C1040       C  0.99110804  0.68302517  0.46473621    -0.18800
C1041       C  0.99284427  0.68783757  0.53787204    -0.18800
C1042       C  0.99059726  0.81769581  0.53538765    -0.18800
C1043       C  0.98685215  0.81260597  0.46253704    -0.18800
H1044       H  0.97211113  0.61615462  0.48282776     0.14100
H1045       H  0.97288048  0.61878828  0.52254491     0.14100
H1046       H  0.96293351  0.88044367  0.47823672     0.14100
H1047       H  0.96520670  0.88331581  0.51796352     0.14100
H1048       H  0.00987339  0.71086427  0.42609944     0.12400
H1049       H  0.00724916  0.78105594  0.42486774     0.12400
H1050       H  0.01354063  0.72044796  0.57506464     0.12400
H1051       H  0.01153502  0.79063098  0.57387334     0.12400
H1052       H  0.00590540  0.71993147  0.50049792     0.25600
H1053       H  0.00414672  0.78117214  0.49934043     0.25600
N1054       N  0.19615262  0.48968394  0.50067840    -0.37100
N1055       N  0.25215201  0.49263199  0.53112507    -0.57700
N1056       N  0.30766992  0.48849556  0.50035020    -0.37100
N1057       N  0.25158102  0.48882394  0.46997523    -0.57700
C1058       C  0.17561099  0.49681813  0.51698421     0.26400
C1059       C  0.17556348  0.49531626  0.48429314     0.26400
C1060       C  0.32810275  0.49636266  0.51649635     0.26400
C1061       C  0.32754495  0.49527048  0.48377316     0.26400
C1062       C  0.22308967  0.49086036  0.54330424     0.35100
C1063       C  0.28123107  0.48997757  0.54314442     0.35100
C1064       C  0.22255527  0.48351727  0.45828028     0.35100
C1065       C  0.28056918  0.48278824  0.45818071     0.35100
C1066       C  0.14111012  0.50593385  0.51093239    -0.22400
C1067       C  0.14112585  0.50512713  0.49025717    -0.22400
C1068       C  0.36174507  0.50734647  0.51012395    -0.22400
C1069       C  0.36129695  0.50691571  0.48943260    -0.22400
C1070       C  0.23380024  0.48773090  0.56313854    -0.23500
C1071       C  0.27048599  0.48723946  0.56304821    -0.23500
C1072       C  0.23645841  0.97346116  0.43933475    -0.23500
C1073       C  0.27315735  0.97598690  0.43924300    -0.23500
C1074       C  0.18690550  0.49434211  0.53715987    -0.18800
C1075       C  0.18666902  0.49023092  0.46417113    -0.18800
C1076       C  0.31633978  0.48988115  0.46374400    -0.18800
C1077       C  0.31742140  0.49268108  0.53676951    -0.18800
H1078       H  0.11830821  0.51257977  0.52041214     0.14100
H1079       H  0.11832415  0.51085173  0.48071989     0.14100
H1080       H  0.38422094  0.51511155  0.51938412     0.14100
H1081       H  0.38337476  0.51414539  0.47967874     0.14100
H1082       H  0.21699035  0.48668415  0.57641240     0.12400
H1083       H  0.28720671  0.48596113  0.57628013     0.12400
H1084       H  0.21991185  0.96722133  0.42647925     0.12400
H1085       H  0.29042545  0.97202570  0.42629772     0.12400
H1086       H  0.22162095  0.47836457  0.50081420     0.25600
H1087       H  0.28312429  0.47584578  0.50065809     0.25600
C1088       C  0.99809860  0.74771533  0.25153511    -0.03000
C1089       C  0.47073036  0.82470400  0.28703863    -0.26900
C1090       C  0.49907535  0.84888537  0.28473791    -0.14900
C1091       C  0.02473646  0.84400087  0.26962530     0.35700
C1092       C  0.02369569  0.81142518  0.25908069    -0.26300
C1093       C  0.49805909  0.78242917  0.26282577    -0.15500
C1094       C  0.47007792  0.79188090  0.27654710     0.36800
N1095       N  0.44064828  0.76822187  0.27995449    -0.89800
H1096       H  0.44913833  0.83085368  0.29748513     0.17900
H1097       H  0.04195473  0.80887864  0.24655345     0.17900
N1098       N  0.05122307  0.87045789  0.26474876    -0.88800
H1099       H  0.41690949  0.78171176  0.27619269     0.35300
H1100       H  0.43961638  0.76227432  0.29527718     0.40400
H1101       H  0.03771563  0.89270403  0.25886934     0.40000
H1102       H  0.06861426  0.86107267  0.25349645     0.34900
C1103       C  0.50385655  0.64631126  0.26653043    -0.26900
C1104       C  0.50332020  0.64866502  0.28739052    -0.14900
C1105       C  0.00613752  0.68297147  0.29723767     0.35700
C1106       C  0.00595332  0.71444844  0.28567247    -0.26300
C1107       C  0.50045119  0.71190884  0.26373068    -0.15500
C1108       C  0.50242021  0.67717564  0.25466124     0.36800
N1109       N  0.50138711  0.67296081  0.23329268    -0.89800
H1110       H  0.50448053  0.62020771  0.25933426     0.10300
H1111       H  0.00863077  0.73966733  0.29344126     0.17900
N1112       N  0.00693886  0.68485298  0.31879974    -0.88800
H1113       H  0.47936925  0.65706176  0.22960217     0.35300
H1114       H  0.52471136  0.65930685  0.22877173     0.40400
H1115       H  0.98280092  0.67432648  0.32415046     0.40000
H1116       H  0.00757432  0.71151522  0.32364266     0.34900
C1117       C  0.46659148  0.63545507  0.41791729    -0.26900
C1118       C  0.49823854  0.61707812  0.41240532    -0.14900
C1119       C  0.02218622  0.61407351  0.42681895     0.35700
C1120       C  0.01919039  0.63396358  0.44475544    -0.26300
C1121       C  0.98874423  0.65522379  0.44876188    -0.15500
C1122       C  0.46456603  0.65614151  0.43547485     0.36800
N1123       N  0.43154175  0.67504196  0.43970332    -0.89800
H1124       H  0.44335445  0.63472148  0.40817745     0.17900
H1125       H  0.04143691  0.63439221  0.45519998     0.17900
N1126       N  0.05374610  0.59267987  0.42293620    -0.88800
H1127       H  0.42830154  0.69470358  0.42871457     0.35300
H1128       H  0.43222829  0.68813368  0.45357126     0.40400
H1129       H  0.04581703  0.56589643  0.42227293     0.40000
H1130       H  0.07169445  0.59458843  0.43491677     0.34900
C1131       C  0.01594751  0.85889868  0.44192044    -0.26900
C1132       C  0.98515594  0.83887681  0.44593372    -0.14900
C1133       C  0.45854067  0.84400689  0.43380129     0.35700
C1134       C  0.46050630  0.86415980  0.41618604    -0.26300
C1135       C  0.49180739  0.88277089  0.41107117    -0.15500
C1136       C  0.01915418  0.87859730  0.42411516     0.36800
N1137       N  0.05113639  0.89868287  0.42026844    -0.89800
H1138       H  0.03817374  0.85789809  0.45237703     0.17900
H1139       H  0.43778380  0.86409354  0.40606343     0.17900
N1140       N  0.42610262  0.82463069  0.43781501    -0.88800
H1141       H  0.06949396  0.89535462  0.43194530     0.35300
H1142       H  0.04385573  0.92582424  0.42021620     0.40400
H1143       H  0.42699554  0.81177872  0.45169007     0.40000
H1144       H  0.42381510  0.80471531  0.42682443     0.34900
C1145       C  0.12386205  0.96199858  0.42316844    -0.26900
C1146       C  0.12204664  0.99402985  0.41220170    -0.14900
C1147       C  0.13839214  0.52762994  0.41925673     0.35700
C1148       C  0.15759092  0.52533011  0.43727957    -0.26300
C1149       C  0.15977263  0.49305858  0.44789942    -0.15500
C1150       C  0.14306851  0.95970252  0.44120460     0.36800
N1151       N  0.14376237  0.92602894  0.45161515    -0.89800
H1152       H  0.11080963  0.93829809  0.41750755     0.17900
H1153       H  0.17229536  0.54844950  0.44256081     0.17900
N1154       N  0.13836223  0.56057355  0.40831814    -0.88800
H1155       H  0.11741860  0.92048933  0.45605429     0.35300
H1156       H  0.15878730  0.92747349  0.46478013     0.40400
H1157       H  0.16499377  0.56689964  0.40490100     0.40000
H1158       H  0.12818688  0.58075576  0.41770922     0.34900
C1159       C  0.36709663  0.97230903  0.44242866    -0.26900
C1160       C  0.34468543  0.00125286  0.44769819    -0.14900
C1161       C  0.34099237  0.52544791  0.43485384     0.35700
C1162       C  0.35996651  0.52561604  0.41673101    -0.26300
C1163       C  0.38210629  0.00116603  0.41081038    -0.15500
C1164       C  0.38610728  0.97200498  0.42413076     0.36800
N1165       N  0.40894963  0.94207848  0.41897323    -0.89800
H1166       H  0.36834886  0.94918297  0.45218881     0.17900
H1167       H  0.35785741  0.54896201  0.40717913     0.17900
N1168       N  0.31978529  0.55656577  0.44000423    -0.88800
H1169       H  0.40855582  0.92286003  0.43033684     0.35300
H1170       H  0.43531938  0.95145385  0.41820448     0.40400
H1171       H  0.30838775  0.55457732  0.45429764     0.40000
H1172       H  0.29865106  0.55824675  0.42975573     0.34900
C1173       C  0.12267602  0.96716805  0.57825194    -0.26900
C1174       C  0.11785631  0.50233243  0.58860817    -0.14900
C1175       C  0.13034018  0.53358492  0.57899381     0.35700
C1176       C  0.15115944  0.53021384  0.56144192    -0.26300
C1177       C  0.15942879  0.49650185  0.55325453    -0.15500
C1178       C  0.14297528  0.96373358  0.56062358     0.36800
N1179       N  0.14488162  0.92921532  0.55097283    -0.89800
H1180       H  0.10963388  0.94364354  0.58412539     0.17900
H1181       H  0.16214347  0.55390220  0.55445273     0.17900
N1182       N  0.12312946  0.56846271  0.58735915    -0.88800
H1183       H  0.11897427  0.92294564  0.54616677     0.35300
H1184       H  0.16089784  0.92967534  0.53808705     0.40400
H1185       H  0.09558202  0.57333639  0.58595665     0.40000
H1186       H  0.13590300  0.58828210  0.57897241     0.34900
C1187       C  0.35696078  0.52607988  0.55997917    -0.26900
C1188       C  0.34512051  0.49294317  0.55275017    -0.14900
C1189       C  0.36220737  0.96874846  0.56080314     0.35700
C1190       C  0.37882132  0.97057309  0.57958826    -0.26300
C1191       C  0.38125863  0.49743751  0.58982002    -0.15500
C1192       C  0.37563610  0.52865369  0.57822087     0.36800
N1193       N  0.38813598  0.56288632  0.58509189    -0.89800
H1194       H  0.35025934  0.55017365  0.55173400     0.17900
H1195       H  0.38999392  0.94620244  0.58587325     0.17900
N1196       N  0.36129213  0.93469548  0.55064014    -0.88800
H1197       H  0.38090401  0.58308021  0.57501784     0.35300
H1198       H  0.41622472  0.56183944  0.58506074     0.40400
H1199       H  0.34894924  0.93673748  0.53664436     0.40000
H1200       H  0.38788215  0.92692644  0.54774706     0.34900
C1201       C  0.01568599  0.61782684  0.57714842    -0.26900
C1202       C  0.49240908  0.62468054  0.59043627    -0.14900
C1203       C  0.46486064  0.64934007  0.58550135     0.35700
C1204       C  0.46723117  0.66872903  0.56750156    -0.26300
C1205       C  0.98964137  0.66226304  0.55488350    -0.15500
C1206       C  0.01688315  0.63697472  0.55903008     0.36800
N1207       N  0.04602914  0.63152894  0.54509550    -0.89800
H1208       H  0.03683457  0.59870973  0.58047389     0.17900
H1209       H  0.44682479  0.68860637  0.56400541     0.17900
N1210       N  0.43573836  0.65626776  0.59925050    -0.88800
H1211       H  0.06367270  0.61174440  0.55032267     0.35300
H1212       H  0.06062030  0.65529692  0.54444837     0.40400
H1213       H  0.41944733  0.63361604  0.59931395     0.40000
H1214       H  0.41958822  0.67733483  0.59410649     0.34900
C1215       C  0.46569555  0.87326318  0.58052543    -0.26900
C1216       C  0.49854363  0.88587724  0.58798679    -0.14900
C1217       C  0.02585799  0.87907301  0.57539166     0.35700
C1218       C  0.02264823  0.86060788  0.55706100    -0.26300
C1219       C  0.98982744  0.84599679  0.55110558    -0.15500
C1220       C  0.46402608  0.85368072  0.56260204     0.36800
N1221       N  0.42971121  0.84030646  0.55632528    -0.89800
H1222       H  0.44111896  0.87750797  0.58901202     0.17900
H1223       H  0.04643047  0.85515617  0.54807418     0.17900
N1224       N  0.06041358  0.89173469  0.58162231    -0.88800
H1225       H  0.42142419  0.82148811  0.56691556     0.35300
H1226       H  0.43133711  0.82704435  0.54253070     0.40400
H1227       H  0.07940508  0.88794364  0.57018154     0.40000
H1228       H  0.06893142  0.87559454  0.59349390     0.34900
C1229       C  0.06605703  0.74542093  0.24754809    -0.26900
C1230       C  0.03227100  0.74541134  0.23766163    -0.14900
C1231       C  0.03284968  0.74190111  0.21633346     0.35700
C1232       C  0.06576175  0.74263124  0.20592903    -0.26300
C1233       C  0.09850295  0.74536685  0.21603071    -0.15500
C1234       C  0.09874418  0.74618599  0.23715134     0.36800
N1235       N  0.13140061  0.74775169  0.24861000    -0.89800
H1236       H  0.06694254  0.74648753  0.26380415     0.17900
H1237       H  0.06574185  0.74052238  0.18968959     0.17900
N1238       N  0.00099843  0.73534015  0.20498937    -0.88800
H1239       H  0.13119237  0.77199333  0.25653290     0.35300
H1240       H  0.15415770  0.74794265  0.23941538     0.40400
H1241       H  0.00419991  0.71095054  0.19738438     0.40000
H1242       H  0.99846411  0.75548985  0.19422097     0.34900
C1243       C  0.40070845  0.72613918  0.22921867    -0.26900
C1244       C  0.39652629  0.75362265  0.21530142    -0.14900
C1245       C  0.42345991  0.77980363  0.21377309     0.35700
C1246       C  0.45460416  0.77684839  0.22567838    -0.26300
C1247       C  0.46074322  0.74748016  0.23865448    -0.15500
C1248       C  0.43121190  0.72349209  0.24142575     0.36800
N1249       N  0.42997078  0.69799906  0.25741509    -0.89800
H1250       H  0.37928338  0.70695536  0.23119750     0.17900
H1251       H  0.47531983  0.79685298  0.22410683     0.17900
N1252       N  0.41982249  0.80864243  0.19968740    -0.88800
H1253       H  0.42570479  0.67260434  0.25121915     0.35300
H1254       H  0.40793606  0.70419966  0.26661183     0.40400
H1255       H  0.42043021  0.79746270  0.18528267     0.40000
H1256       H  0.44183912  0.82581128  0.20057830     0.34900
C1257       C  0.22557610  0.61364251  0.05730258    -0.26900
C1258       C  0.25746467  0.59572350  0.05195659    -0.14900
C1259       C  0.28837462  0.59962351  0.06397795     0.35700
C1260       C  0.28577996  0.61893560  0.08193680    -0.26300
C1261       C  0.25312884  0.63458848  0.08818219    -0.15500
C1262       C  0.22312854  0.63345925  0.07524297     0.36800
N1263       N  0.19025120  0.65182717  0.08043967    -0.89800
H1264       H  0.20207074  0.61068740  0.04790337     0.17900
H1265       H  0.30930539  0.62051840  0.09142442     0.17900
N1266       N  0.32238491  0.58347563  0.05875209    -0.88800
H1267       H  0.17079718  0.64781713  0.06939494     0.35300
H1268       H  0.19558428  0.67929111  0.08057487     0.40400
H1269       H  0.32168202  0.57116378  0.04466028     0.40000
H1270       H  0.32783656  0.56347944  0.06927426     0.34900
C1271       C  0.21654553  0.89703112  0.06070000    -0.26900
C1272       C  0.24971422  0.90946784  0.05382100    -0.14900
C1273       C  0.28107991  0.90232195  0.06483378     0.35700
C1274       C  0.27838641  0.88417106  0.08316522    -0.26300
C1275       C  0.24493721  0.87289936  0.09066931    -0.15500
C1276       C  0.21365028  0.87910166  0.07911701     0.36800
N1277       N  0.17896773  0.86809211  0.08620362    -0.89800
H1278       H  0.19253755  0.90328083  0.05220238     0.17900
H1279       H  0.30252612  0.87962756  0.09184478     0.17900
N1280       N  0.31522772  0.91487935  0.05772390    -0.88800
H1281       H  0.15932677  0.87273489  0.07531356     0.35300
H1282       H  0.17218425  0.88449164  0.09842792     0.40400
H1283       H  0.32098453  0.90146371  0.04426869     0.40000
H1284       H  0.33565095  0.90786888  0.06774264     0.34900
C1285       C  0.21871396  0.62007047  0.91884396    -0.26900
C1286       C  0.25189078  0.62724462  0.90962914    -0.14900
C1287       C  0.28405317  0.61775527  0.91969385     0.35700
C1288       C  0.28207073  0.60041667  0.93830428    -0.26300
C1289       C  0.24890414  0.59207956  0.94698180    -0.15500
C1290       C  0.21678691  0.60291511  0.93742616     0.36800
N1291       N  0.18188608  0.59585254  0.94577938    -0.89800
H1292       H  0.19386436  0.62711841  0.91138385     0.17900
H1293       H  0.30652861  0.59146207  0.94558599     0.17900
N1294       N  0.31859990  0.62467700  0.91086884    -0.88800
H1295       H  0.16926584  0.57733083  0.93640562     0.35300
H1296       H  0.18366863  0.58429215  0.95998756     0.40400
H1297       H  0.32155041  0.60757380  0.89848752     0.40000
H1298       H  0.33925159  0.61791372  0.92079155     0.34900
C1299       C  0.22203403  0.88479218  0.94280503    -0.26900
C1300       C  0.25185308  0.90511412  0.94830612    -0.14900
C1301       C  0.28309347  0.90436663  0.93628555     0.35700
C1302       C  0.28307035  0.88490937  0.91823708    -0.26300
C1303       C  0.25227279  0.86671875  0.91188546    -0.15500
C1304       C  0.22195818  0.86531611  0.92472066     0.36800
N1305       N  0.19106730  0.84466213  0.91926855    -0.89800
H1306       H  0.19820357  0.88553910  0.95219989     0.17900
H1307       H  0.30663380  0.88541981  0.90864573     0.17900
N1308       N  0.31425434  0.92430320  0.94217540    -0.88800
H1309       H  0.17105205  0.84699275  0.93025267     0.35300
H1310       H  0.19896955  0.81770008  0.91898339     0.40400
H1311       H  0.30778451  0.95154787  0.94139856     0.40000
H1312       H  0.33530606  0.92000771  0.93198025     0.34900
C1313       C  0.49991787  0.71690080  0.71633691    -0.26900
C1314       C  0.49941860  0.71679735  0.73757512    -0.14900
C1315       C  0.99417061  0.68127089  0.74753033     0.35700
C1316       C  0.99302600  0.64986041  0.73599626    -0.26300
C1317       C  0.49602613  0.65189522  0.71503112    -0.15500
C1318       C  0.49908272  0.68488667  0.70509518     0.36800
N1319       N  0.50154613  0.68569766  0.68355776    -0.89800
H1320       H  0.50047266  0.74172616  0.70816999     0.17900
H1321       H  0.99084133  0.62421035  0.74345393     0.17900
N1322       N  0.99260264  0.67812650  0.76894525    -0.88800
H1323       H  0.50435713  0.71196425  0.67848236     0.35300
H1324       H  0.47721688  0.67635734  0.67782513     0.40400
H1325       H  0.01378208  0.66159014  0.77358007     0.40000
H1326       H  0.96847873  0.66564100  0.77274476     0.34900
C1327       C  0.03132712  0.82521937  0.71403030    -0.26900
C1328       C  0.50502372  0.85191239  0.71460173    -0.14900
C1329       C  0.47716743  0.84623195  0.72846853     0.35700
C1330       C  0.47691986  0.81482459  0.73988440    -0.26300
C1331       C  0.50317845  0.78728064  0.73750506    -0.15500
C1332       C  0.03078732  0.79335860  0.72533472     0.36800
N1333       N  0.06009034  0.76846988  0.72324635    -0.89800
H1334       H  0.05349106  0.82969984  0.70377959     0.17900
H1335       H  0.45612720  0.81307029  0.75111178     0.17900
N1336       N  0.44936638  0.87285291  0.73125211    -0.88800
H1337       H  0.08369044  0.78153810  0.72733694     0.35300
H1338       H  0.06233403  0.76116351  0.70811292     0.40400
H1339       H  0.46135433  0.89579511  0.73717177     0.40000
H1340       H  0.43038452  0.86451277  0.74181122     0.34900
C1341       C  0.06213734  0.72350644  0.76114133    -0.26900
C1342       C  0.03514352  0.75015934  0.76404177    -0.14900
C1343       C  0.04347592  0.77868902  0.77743991     0.35700
C1344       C  0.07614278  0.77866995  0.78805369    -0.26300
C1345       C  0.10157374  0.75099279  0.78564361    -0.15500
C1346       C  0.09441283  0.72342622  0.77174473     0.36800
N1347       N  0.12006896  0.69562754  0.76728197    -0.89800
H1348       H  0.05948760  0.70267393  0.74999517     0.17900
H1349       H  0.08140442  0.80041637  0.79843034     0.17900
N1350       N  0.01890003  0.80803520  0.78027769    -0.88800
H1351       H  0.12392015  0.67994417  0.78004954     0.35300
H1352       H  0.14438531  0.70738222  0.76317264     0.40400
H1353       H  0.03201700  0.83159273  0.77624208     0.40000
H1354       H  0.01245952  0.80977077  0.79554823     0.34900
C1355       C  0.40067569  0.74853657  0.76507206    -0.26900
C1356       C  0.40169231  0.74885638  0.78595971    -0.14900
C1357       C  0.43515750  0.74975800  0.79588866     0.35700
C1358       C  0.46691279  0.75076663  0.78452320    -0.26300
C1359       C  0.46649820  0.75155335  0.76329435    -0.15500
C1360       C  0.43230939  0.74960053  0.75370095     0.36800
N1361       N  0.42953421  0.74932398  0.73224181    -0.89800
H1362       H  0.37500365  0.74764116  0.75744858     0.17900
H1363       H  0.49185974  0.74984472  0.79269390     0.17900
N1364       N  0.43818048  0.74896072  0.81741754    -0.88800
H1365       H  0.41354740  0.77110848  0.72790197     0.35300
H1366       H  0.41649247  0.72584832  0.72792831     0.40400
H1367       H  0.41319400  0.74727964  0.82449532     0.40000
H1368       H  0.44945930  0.77317560  0.82199233     0.34900
C1369       C  0.31063532  0.52090009  0.74345290    -0.26900
C1370       C  0.28238908  0.49681632  0.73892915    -0.14900
C1371       C  0.29167359  0.97127083  0.72400847     0.35700
C1372       C  0.32505492  0.97121261  0.71398825    -0.26300
C1373       C  0.34877080  0.49700639  0.71680379    -0.15500
C1374       C  0.34246689  0.52209962  0.73228725     0.36800
N1375       N  0.36846927  0.54855064  0.73760253    -0.89800
H1376       H  0.30899533  0.53912392  0.75604586     0.17900
H1377       H  0.33027893  0.95103343  0.70258221     0.17900
N1378       N  0.26671142  0.94344585  0.71951894    -0.88800
H1379       H  0.37194248  0.56588108  0.72550453     0.35300
H1380       H  0.39287695  0.53564144  0.74065616     0.40400
H1381       H  0.27894707  0.91889908  0.72286458     0.40000
H1382       H  0.26150416  0.94383955  0.70409937     0.34900
C1383       C  0.21447199  0.00528436  0.71549170    -0.26900
C1384       C  0.21178579  0.50160382  0.73737461    -0.14900
C1385       C  0.17667157  0.50368533  0.74601335     0.35700
C1386       C  0.14613174  0.50471652  0.73377237    -0.26300
C1387       C  0.14915361  0.50487195  0.71291823    -0.15500
C1388       C  0.18370013  0.00486814  0.70332696     0.36800
N1389       N  0.18860879  0.00461735  0.68188830    -0.89800
H1390       H  0.24009766  0.00750428  0.70801192     0.17900
H1391       H  0.11971531  0.50486829  0.74069390     0.17900
N1392       N  0.17169643  0.50338618  0.76732735    -0.88800
H1393       H  0.20073730  0.02875033  0.67791316     0.35300
H1394       H  0.16422165  0.00365242  0.67426829     0.40400
H1395       H  0.15555706  0.48162548  0.77108316     0.40000
H1396       H  0.15790452  0.52682767  0.77143690     0.34900
C1397       C  0.24632976  0.56584841  0.75405690    -0.26900
C1398       C  0.24409217  0.53271276  0.76436106    -0.14900
C1399       C  0.23991155  0.53459605  0.78566075     0.35700
C1400       C  0.24302465  0.56772215  0.79566404    -0.26300
C1401       C  0.24876749  0.59960527  0.78519349    -0.15500
C1402       C  0.24964381  0.59874602  0.76405143     0.36800
N1403       N  0.25369416  0.63053146  0.75214923    -0.89800
H1404       H  0.24759191  0.56591867  0.73779943     0.17900
H1405       H  0.24021997  0.56861132  0.81186773     0.17900
N1406       N  0.23023929  0.50404964  0.79734176    -0.88800
H1407       H  0.27785652  0.62801483  0.74417646     0.35300
H1408       H  0.25589822  0.65347575  0.76103294     0.40400
H1409       H  0.20577661  0.50959205  0.80452821     0.40000
H1410       H  0.24968066  0.50045993  0.80846527     0.34900
C1411       C  0.27560052  0.95759938  0.77581442    -0.26900
C1412       C  0.24683815  0.96300481  0.76227454    -0.14900
C1413       C  0.22335719  0.93328251  0.75914384     0.35700
C1414       C  0.22634988  0.90270764  0.77116672    -0.26300
C1415       C  0.25360605  0.89891038  0.78532042    -0.15500
C1416       C  0.27911106  0.92636519  0.78739354     0.36800
N1417       N  0.30758349  0.92335242  0.80182631    -0.89800
H1418       H  0.29508743  0.97867343  0.77781214     0.17900
H1419       H  0.20757475  0.88101758  0.76892212     0.17900
N1420       N  0.19784652  0.93212854  0.74311999    -0.88800
H1421       H  0.32210658  0.94717652  0.80263739     0.35300
H1422       H  0.32558218  0.90384027  0.79653437     0.40400
H1423       H  0.17240362  0.92760856  0.74927841     0.40000
H1424       H  0.20422523  0.91034703  0.73381155     0.34900
C1425       C  0.09208350  0.71807654  0.06313934    -0.26900
C1426       C  0.09348127  0.74935081  0.05157538    -0.14900
C1427       C  0.11449708  0.77843410  0.05817621     0.35700
C1428       C  0.13162174  0.77629738  0.07681822    -0.26300
C1429       C  0.12831964  0.74593811  0.08905068    -0.15500
C1430       C  0.10888895  0.71614581  0.08194043     0.36800
N1431       N  0.10452065  0.68488919  0.09421517    -0.89800
H1432       H  0.07546532  0.69610748  0.05811495     0.17900
H1433       H  0.14693524  0.79905239  0.08199344     0.17900
N1434       N  0.11744491  0.81115349  0.04699775    -0.88800
H1435       H  0.08985486  0.66533589  0.08660342     0.35300
H1436       H  0.08909351  0.69242005  0.10671304     0.40400
H1437       H  0.10369851  0.80975474  0.03339366     0.40000
H1438       H  0.14454481  0.81444313  0.04334197     0.34900
C1439       C  0.38762566  0.78655373  0.05944429    -0.26900
C1440       C  0.40637435  0.75571701  0.05344226    -0.14900
C1441       C  0.40263171  0.72389613  0.06434269     0.35700
C1442       C  0.38170475  0.72380806  0.08184910    -0.26300
C1443       C  0.36474564  0.75530724  0.08882753    -0.15500
C1444       C  0.36687173  0.78679377  0.07696600     0.36800
N1445       N  0.34852853  0.81941260  0.08217512    -0.89800
H1446       H  0.39040342  0.81102770  0.05089978     0.17900
H1447       H  0.37989345  0.69923385  0.09036953     0.17900
N1448       N  0.42098159  0.69194743  0.05793182    -0.88800
H1449       H  0.35893581  0.82933525  0.09563205     0.35300
H1450       H  0.32119979  0.81405893  0.08388108     0.40400
H1451       H  0.40178623  0.67210139  0.05562907     0.40000
H1452       H  0.43785957  0.68359204  0.06955872     0.34900
C1453       C  0.10215250  0.72023117  0.93867674    -0.26900
C1454       C  0.08931887  0.75307945  0.94614382    -0.14900
C1455       C  0.09937460  0.78521606  0.93656825     0.35700
C1456       C  0.11988640  0.78346482  0.91895759    -0.26300
C1457       C  0.13160632  0.75053988  0.91090905    -0.15500
C1458       C  0.12394890  0.71861483  0.92142875     0.36800
N1459       N  0.13797769  0.68470946  0.91457671    -0.89800
H1460       H  0.09465465  0.69573212  0.94622377     0.17900
H1461       H  0.12600035  0.80820284  0.91129282     0.17900
N1462       N  0.08872122  0.81994634  0.94401981    -0.88800
H1463       H  0.12912656  0.66393857  0.92378796     0.35300
H1464       H  0.16588624  0.68558368  0.91618341     0.40400
H1465       H  0.07469985  0.81829195  0.95758184     0.40000
H1466       H  0.07124081  0.83133977  0.93354697     0.34900
C1467       C  0.38647374  0.78223216  0.94239022    -0.26900
C1468       C  0.40646182  0.75226232  0.94842875    -0.14900
C1469       C  0.40469488  0.72013762  0.93716749     0.35700
C1470       C  0.38466174  0.71948525  0.91943264    -0.26300
C1471       C  0.36670412  0.75021701  0.91251090    -0.15500
C1472       C  0.36631804  0.78155114  0.92460457     0.36800
N1473       N  0.34604255  0.81270342  0.91869742    -0.89800
H1474       H  0.38786751  0.80669261  0.95117236     0.17900
H1475       H  0.38447313  0.69508366  0.91057076     0.17900
N1476       N  0.42363514  0.68807684  0.94293684    -0.88800
H1477       H  0.34931223  0.83354158  0.92905684     0.35300
H1478       H  0.31884815  0.80593991  0.91912759     0.40400
H1479       H  0.43660754  0.69106119  0.95670532     0.40000
H1480       H  0.44354426  0.68310441  0.93215325     0.34900
C1481       C  0.28588034  0.00803284  0.28244049    -0.26900
C1482       C  0.28628529  0.00242903  0.26141029    -0.14900
C1483       C  0.31885948  0.49849476  0.25297023     0.35700
C1484       C  0.35023147  0.49873886  0.26460810    -0.26300
C1485       C  0.35115421  0.00331650  0.28418942    -0.15500
C1486       C  0.31752856  0.00772081  0.29389375     0.36800
N1487       N  0.31419346  0.01133447  0.31533534    -0.89800
H1488       H  0.26104178  0.01315605  0.29038811     0.17900
H1489       H  0.37602888  0.49464261  0.25729711     0.17900
N1490       N  0.32233334  0.49328077  0.23174994    -0.88800
H1491       H  0.30380785  0.03690303  0.31837582     0.35300
H1492       H  0.33896495  0.00957012  0.32254043     0.40400
H1493       H  0.33594340  0.46905242  0.22918156     0.40000
H1494       H  0.33811110  0.51390830  0.22601750     0.34900
C1495       C  0.15322435  0.52296114  0.27184469    -0.26900
C1496       C  0.15230516  0.99765679  0.28649339    -0.14900
C1497       C  0.18040641  0.97241315  0.28848866     0.35700
C1498       C  0.21100561  0.97468379  0.27601978    -0.26300
C1499       C  0.21549209  0.00230823  0.26170933    -0.15500
C1500       C  0.18338040  0.52514775  0.25921983     0.36800
N1501       N  0.18112344  0.54969677  0.24278857    -0.89800
H1502       H  0.13093170  0.54136568  0.26952660     0.17900
H1503       H  0.23222015  0.95492575  0.27778538     0.17900
N1504       N  0.17830099  0.94499664  0.30351712    -0.88800
H1505       H  0.17691891  0.57543470  0.24864247     0.35300
H1506       H  0.15866394  0.54326767  0.23414323     0.40400
H1507       H  0.17857585  0.95765589  0.31754615     0.40000
H1508       H  0.20104447  0.92836888  0.30297102     0.34900
C1509       C  0.25299461  0.56850764  0.24615428    -0.26900
C1510       C  0.25238664  0.53516332  0.23581492    -0.14900
C1511       C  0.25672887  0.53621041  0.21454786     0.35700
C1512       C  0.25634398  0.56932856  0.20453486    -0.26300
C1513       C  0.25330425  0.60178484  0.21501770    -0.15500
C1514       C  0.25251657  0.60143582  0.23615367     0.36800
N1515       N  0.25093062  0.63371197  0.24802100    -0.89800
H1516       H  0.25158124  0.56897336  0.26240208     0.17900
H1517       H  0.25873262  0.56967584  0.18830953     0.17900
N1518       N  0.26362079  0.50456110  0.20291031    -0.88800
H1519       H  0.22645372  0.63390868  0.25575237     0.35300
H1520       H  0.25114515  0.65666213  0.23911302     0.40400
H1521       H  0.28866931  0.50724768  0.19594762     0.40000
H1522       H  0.24446969  0.50321953  0.19150479     0.34900
C1523       C  0.21737317  0.92460883  0.21345880    -0.26900
C1524       C  0.24264996  0.89732498  0.21691803    -0.14900
C1525       C  0.26918151  0.90263361  0.23170363     0.35700
C1526       C  0.27144362  0.93589240  0.24132877    -0.26300
C1527       C  0.24825576  0.96508138  0.23676895    -0.15500
C1528       C  0.21948085  0.95785736  0.22336336     0.36800
N1529       N  0.19228209  0.98427359  0.21957756    -0.89800
H1530       H  0.19625484  0.92054751  0.20254605     0.17900
H1531       H  0.29115816  0.93770520  0.25310871     0.17900
N1532       N  0.29384848  0.87481757  0.23782937    -0.88800
H1533       H  0.16759063  0.97367910  0.22395194     0.35300
H1534       H  0.19109642  0.98890253  0.20412187     0.40400
H1535       H  0.28735460  0.85005521  0.23160653     0.40000
H1536       H  0.29070962  0.87137347  0.25329936     0.34900
C1537       C  0.75000357  0.50336665  0.24868915    -0.03000
N1538       N  0.94503198  0.25530693  0.00088101    -0.37100
N1539       N  0.50118919  0.24885279  0.96982383    -0.57700
N1540       N  0.55520866  0.25581355  0.00080765    -0.37100
N1541       N  0.49851675  0.26063478  0.03042243    -0.57700
C1542       C  0.92533991  0.24582613  0.98475920     0.26400
C1543       C  0.92542727  0.24780973  0.01741063     0.26400
C1544       C  0.57605625  0.24617374  0.98504242     0.26400
C1545       C  0.57430727  0.24950904  0.01765642     0.26400
C1546       C  0.97165745  0.25746670  0.95875292     0.35100
C1547       C  0.53050127  0.25377392  0.95816714     0.35100
C1548       C  0.97181161  0.26244491  0.04277036     0.35100
C1549       C  0.52704537  0.26724705  0.04225111     0.35100
C1550       C  0.89240656  0.23282466  0.99106085    -0.22400
C1551       C  0.89246665  0.23407177  0.01176306    -0.22400
C1552       C  0.60924558  0.23437316  0.99185720    -0.22400
C1553       C  0.60805691  0.23626670  0.01252116    -0.22400
C1554       C  0.98221450  0.26699752  0.93953580    -0.23500
C1555       C  0.52032814  0.25974835  0.93843968    -0.23500
C1556       C  0.98246735  0.27307798  0.06180091    -0.23500
C1557       C  0.51569888  0.27998079  0.06082534    -0.23500
C1558       C  0.93598335  0.25033303  0.96459062    -0.18800
C1559       C  0.93617497  0.25466998  0.03732377    -0.18800
C1560       C  0.56273565  0.25767955  0.03737067    -0.18800
C1561       C  0.56638751  0.25008478  0.96472710    -0.18800
H1562       H  0.87061099  0.22355251  0.98172536     0.14100
H1563       H  0.87073407  0.22593525  0.02152693     0.14100
H1564       H  0.63195983  0.22545624  0.98289953     0.14100
H1565       H  0.62975667  0.22927662  0.02258100     0.14100
H1566       H  0.96517156  0.27261158  0.92677912     0.12400
H1567       H  0.53753084  0.26374613  0.92552575     0.12400
H1568       H  0.96555595  0.27915573  0.07464712     0.12400
H1569       H  0.53204658  0.28660409  0.07368838     0.12400
H1570       H  0.96889911  0.26952334  0.00055021     0.25600
H1571       H  0.53096991  0.26981149  0.99991394     0.25600
C1572       C  0.74732826  0.99910733  0.75072406    -0.03000
C1573       C  0.50309731  0.25290503  0.75104865    -0.03000
N1574       N  0.75140607  0.05559743  0.00046194    -0.37100
N1575       N  0.75297757  0.50112115  0.03209641    -0.57700
N1576       N  0.75204290  0.44591974  0.00121483    -0.37100
N1577       N  0.75010479  0.50181981  0.97090925    -0.57700
C1578       C  0.76128373  0.07586934  0.01631297     0.26400
C1579       C  0.75681878  0.07523070  0.98375466     0.26400
C1580       C  0.75971069  0.42566479  0.01744179     0.26400
C1581       C  0.76006705  0.42617842  0.98470913     0.26400
C1582       C  0.75280272  0.03024670  0.04301097     0.35100
C1583       C  0.74835321  0.47204914  0.04379133     0.35100
C1584       C  0.74260208  0.02819776  0.95843973     0.35100
C1585       C  0.74673466  0.47271467  0.95896497     0.35100
C1586       C  0.77247733  0.10910470  0.00967914    -0.22400
C1587       C  0.76961683  0.10872266  0.98906487    -0.22400
C1588       C  0.77202219  0.39225546  0.01121397    -0.22400
C1589       C  0.77234578  0.39261038  0.99050737    -0.22400
C1590       C  0.74536717  0.02055531  0.06264554    -0.23500
C1591       C  0.73987477  0.48249730  0.06326843    -0.23500
C1592       C  0.73385727  0.01697785  0.93919293    -0.23500
C1593       C  0.73748818  0.48301116  0.93968174    -0.23500
C1594       C  0.75832105  0.06576999  0.03661807    -0.18800
C1595       C  0.74888964  0.06413788  0.96399387    -0.18800
C1596       C  0.75495018  0.43715737  0.96462116    -0.18800
C1597       C  0.75440200  0.43622730  0.03764405    -0.18800
H1598       H  0.78153129  0.13135844  0.01875613     0.14100
H1599       H  0.77604973  0.13065921  0.97915063     0.14100
H1600       H  0.77994807  0.36998314  0.02060609     0.14100
H1601       H  0.78047733  0.37060303  0.98083060     0.14100
H1602       H  0.74159921  0.03797150  0.07552639     0.12400
H1603       H  0.73515044  0.46553042  0.07612754     0.12400
H1604       H  0.72872209  0.03329997  0.92611898     0.12400
H1605       H  0.73364691  0.46602032  0.92667261     0.12400
H1606       H  0.73792551  0.03143561  0.00118843     0.25600
H1607       H  0.73855223  0.47035423  0.00142400     0.25600
N1608       N  0.73745822  0.32449390  0.86716346    -0.06700
N1609       N  0.72579459  0.34021181  0.88376066    -0.58800
N1610       N  0.77148376  0.32704317  0.82064797    -0.06300
N1611       N  0.78389218  0.35081795  0.80780781    -0.60900
N1612       N  0.73609763  0.32772394  0.82089963    -0.05900
N1613       N  0.72384317  0.35174991  0.80807649    -0.58800
N1614       N  0.77273310  0.32377517  0.86672893    -0.05600
N1615       N  0.78584631  0.33914703  0.88298222    -0.61300
C1616       C  0.75625014  0.34913157  0.89352789     0.95500
C1617       C  0.75392831  0.36588852  0.79993989     0.95300
N1618       N  0.83051798  0.22958606  0.81877545    -0.06800
N1619       N  0.85385438  0.21721728  0.80541463    -0.59400
N1620       N  0.83002208  0.26339943  0.86535395    -0.05000
N1621       N  0.84499075  0.27527970  0.88196090    -0.60600
N1622       N  0.82969540  0.22819710  0.86509282    -0.06900
N1623       N  0.84456633  0.21543916  0.88161139    -0.59600
N1624       N  0.83098443  0.26484973  0.81924491    -0.04600
N1625       N  0.85465527  0.27704459  0.80621607    -0.60700
Mn1626     Mn  0.80217273  0.29550143  0.84275586     1.18400
C1627       C  0.86821314  0.24711615  0.79743250     0.97600
C1628       C  0.85387647  0.24519591  0.89201896     0.98300
N1629       N  0.67413963  0.26895240  0.82105297    -0.06900
N1630       N  0.65006348  0.28189098  0.80839081    -0.63200
N1631       N  0.67771023  0.23186498  0.86660641    -0.05700
N1632       N  0.66278799  0.21910466  0.88302854    -0.63900
N1633       N  0.67817634  0.26702124  0.86718476    -0.06400
N1634       N  0.66366809  0.27889155  0.88407716    -0.63500
N1635       N  0.67418606  0.23371425  0.82054531    -0.05300
N1636       N  0.65044794  0.22211615  0.80746824    -0.64200
Mn1637     Mn  0.70559297  0.29794116  0.84387354     1.10700
C1638       C  0.63579423  0.25230972  0.79977400     0.98800
C1639       C  0.65420102  0.24867724  0.89385346     0.98900
N1640       N  0.77028939  0.17037091  0.86443876    -0.06400
N1641       N  0.78288841  0.15291242  0.88010574    -0.61800
N1642       N  0.73325443  0.17183938  0.81880116    -0.05700
N1643       N  0.71962639  0.14941333  0.80554765    -0.58500
N1644       N  0.76862198  0.17054296  0.81827264    -0.07000
N1645       N  0.77959974  0.14709569  0.80457949    -0.61300
N1646       N  0.73503947  0.17128682  0.86486329    -0.06000
N1647       N  0.72290694  0.15438542  0.88082490    -0.58500
Mn1648     Mn  0.80071432  0.19881439  0.84141260     1.20200
Mn1649     Mn  0.70422559  0.20149810  0.84251852     1.10100
Cl1650     Cl  0.75318275  0.24844356  0.84230744    -0.86500
C1651       C  0.75306611  0.14289208  0.89019644     0.95800
C1652       C  0.74875055  0.13468591  0.79645822     0.95600
N1653       N  0.72875511  0.32843077  0.18204428    -0.06700
N1654       N  0.71535283  0.35214982  0.19492741    -0.58800
N1655       N  0.76562412  0.32728637  0.13637399    -0.06300
N1656       N  0.77848224  0.34361038  0.12043423    -0.60900
N1657       N  0.73038370  0.32597796  0.13567669    -0.05900
N1658       N  0.71857511  0.34136274  0.11907298    -0.58800
N1659       N  0.76413612  0.32905118  0.18238279    -0.05600
N1660       N  0.77535019  0.35297519  0.19551035    -0.61300
C1661       C  0.74476341  0.36676130  0.20354936     0.95500
C1662       C  0.74898167  0.35228459  0.10971141     0.95300
N1663       N  0.82834771  0.23570932  0.13636665    -0.06800
N1664       N  0.84503889  0.22391014  0.12012430    -0.59400
N1665       N  0.82818090  0.27088311  0.18248911    -0.05000
N1666       N  0.85216331  0.28381436  0.19513644    -0.60600
N1667       N  0.82938011  0.23561442  0.18241498    -0.06900
N1668       N  0.85386058  0.22396930  0.19516005    -0.59600
N1669       N  0.82669736  0.27084144  0.13643076    -0.04600
N1670       N  0.84214018  0.28370291  0.12016695    -0.60700
Mn1671     Mn  0.79678450  0.30030370  0.15969628     1.18400
C1672       C  0.85343215  0.25413247  0.11010782     0.97600
C1673       C  0.86779280  0.25424109  0.20309106     0.98300
N1674       N  0.67356709  0.26510251  0.13561935    -0.06900
N1675       N  0.65613068  0.27718900  0.11983714    -0.63200
N1676       N  0.67273539  0.22953822  0.18149796    -0.05700
N1677       N  0.64976699  0.21600193  0.19450535    -0.63900
N1678       N  0.67091543  0.26481409  0.18171113    -0.06400
N1679       N  0.64656861  0.27581777  0.19490642    -0.63500
N1680       N  0.67493763  0.22992995  0.13533927    -0.05300
N1681       N  0.65839550  0.21737832  0.11927070    -0.64200
Mn1682     Mn  0.69998425  0.29690997  0.15895823     1.10700
C1683       C  0.64664219  0.24725154  0.10975487     0.98800
C1684       C  0.63415505  0.24512628  0.20305180     0.98900
N1685       N  0.77160410  0.17344032  0.18193379    -0.06400
N1686       N  0.78497224  0.15176868  0.19566920    -0.61800
N1687       N  0.73698588  0.17394253  0.13535107    -0.05700
N1688       N  0.72562720  0.15895102  0.11859620    -0.58500
N1689       N  0.77223835  0.17522819  0.13552568    -0.07000
N1690       N  0.78557918  0.16107878  0.11885856    -0.61300
N1691       N  0.73629959  0.17178047  0.18175430    -0.06000
N1692       N  0.72505586  0.14883984  0.19540153    -0.58500
Mn1693     Mn  0.80114638  0.20413984  0.15927141     1.20200
Mn1694     Mn  0.70448095  0.20031756  0.15866117     1.10100
Cl1695     Cl  0.75054930  0.25044805  0.15950007    -0.86500
C1696       C  0.75564997  0.13712645  0.20425870     0.95800
C1697       C  0.75618167  0.15108698  0.10839525     0.95600
N1698       N  0.97955743  0.07892235  0.68199854    -0.06700
N1699       N  0.96737543  0.10309543  0.69493384    -0.58800
N1700       N  0.51109109  0.07905233  0.63601719    -0.06300
N1701       N  0.52128927  0.09581095  0.61959249    -0.60900
N1702       N  0.97675635  0.07673617  0.63588416    -0.05900
N1703       N  0.96299499  0.09336288  0.62018255    -0.58800
N1704       N  0.51497870  0.08111671  0.68203009    -0.05600
N1705       N  0.52756101  0.10599835  0.69421806    -0.61300
C1706       C  0.99748544  0.11846017  0.70212077     0.95500
C1707       C  0.99212340  0.10371485  0.60951726     0.95300
N1708       N  0.57488616  0.48741938  0.63425402    -0.06800
N1709       N  0.59098620  0.47590599  0.61773363    -0.59400
N1710       N  0.57738505  0.02168949  0.68042796    -0.05000
N1711       N  0.60120840  0.03468391  0.69311929    -0.60600
N1712       N  0.57886304  0.48679091  0.68042987    -0.06900
N1713       N  0.60340213  0.47513796  0.69316863    -0.59600
N1714       N  0.57315052  0.02151354  0.63416637    -0.04600
N1715       N  0.58950177  0.03353720  0.61789125    -0.60700
Mn1716     Mn  0.54491336  0.05164188  0.65825104     1.18400
C1717       C  0.60060982  0.00335382  0.60818093     0.97600
C1718       C  0.61671110  0.00518304  0.70114714     0.98300
N1719       N  0.91954585  0.01704036  0.63730557    -0.06900
N1720       N  0.90393704  0.02936465  0.62095767    -0.63200
N1721       N  0.92061542  0.48054882  0.68346485    -0.05700
N1722       N  0.89749305  0.46707543  0.69643503    -0.63900
N1723       N  0.92104711  0.01669690  0.68364604    -0.06400
N1724       N  0.89837748  0.02842209  0.69754914    -0.63500
N1725       N  0.91994682  0.48234328  0.63735742    -0.05300
N1726       N  0.90434962  0.47039006  0.62089669    -0.64200
Mn1727     Mn  0.94834623  0.04804172  0.65998371     1.10700
C1728       C  0.89536992  0.99954660  0.61050612     0.98800
C1729       C  0.88527262  0.99821367  0.70594863     0.98900
N1730       N  0.52099057  0.42381860  0.68094790    -0.06400
N1731       N  0.53485210  0.40010526  0.69352072    -0.61800
N1732       N  0.98104392  0.42542219  0.63559001    -0.05700
N1733       N  0.96834628  0.40988662  0.61931921    -0.58500
N1734       N  0.51805495  0.42708941  0.63470588    -0.07000
N1735       N  0.52986532  0.41251960  0.61780585    -0.61300
N1736       N  0.98377408  0.42191779  0.68160089    -0.06000
N1737       N  0.97286693  0.39754558  0.69448018    -0.58500
Mn1738     Mn  0.54904795  0.45547001  0.65775561     1.20200
Mn1739     Mn  0.95060719  0.45173661  0.65971766     1.10100
Cl1740     Cl  0.99785311  0.00036951  0.65910339    -0.86500
C1741       C  0.00365626  0.38322363  0.70180580     0.95800
C1742       C  0.99811824  0.40139308  0.60854614     0.95600
N1743       N  0.98065841  0.42085246  0.31865615    -0.06700
N1744       N  0.96853861  0.39643285  0.30599076    -0.58800
N1745       N  0.51453545  0.42027910  0.36401488    -0.06300
N1746       N  0.52538236  0.40475440  0.38074989    -0.60900
N1747       N  0.97828479  0.42383513  0.36472299    -0.05900
N1748       N  0.96450909  0.40929330  0.38101890    -0.58800
N1749       N  0.51685260  0.41951476  0.31738380    -0.05600
N1750       N  0.52913807  0.39582880  0.30414613    -0.61300
C1751       C  0.99867431  0.38111159  0.29823453     0.95500
C1752       C  0.99361822  0.39974841  0.39189924     0.95300
N1753       N  0.57493022  0.01499891  0.36630684    -0.06800
N1754       N  0.59229405  0.02703946  0.38214224    -0.59400
N1755       N  0.57901145  0.47878258  0.31918073    -0.05000
N1756       N  0.60383970  0.46652416  0.30659844    -0.60600
N1757       N  0.57958033  0.01593019  0.32040831    -0.06900
N1758       N  0.60447858  0.02832140  0.30815378    -0.59600
N1759       N  0.57513112  0.47780950  0.36533982    -0.04600
N1760       N  0.59193798  0.46535201  0.38134632    -0.60700
Mn1761     Mn  0.54718621  0.44813214  0.34131115     1.18400
C1762       C  0.60300484  0.49530367  0.39104051     0.97600
C1763       C  0.61852151  0.49651876  0.29882642     0.98300
N1764       N  0.92104516  0.48414071  0.36398420    -0.06900
N1765       N  0.90587232  0.47247593  0.38063537    -0.63200
N1766       N  0.92382882  0.01927982  0.31745825    -0.05700
N1767       N  0.90006739  0.03242697  0.30472846    -0.63900
N1768       N  0.92106564  0.48411678  0.31756533    -0.06400
N1769       N  0.89692224  0.47291752  0.30449863    -0.63500
N1770       N  0.92272403  0.01843579  0.36357100    -0.05300
N1771       N  0.90777578  0.03093510  0.38019979    -0.64200
Mn1772     Mn  0.94943753  0.45245114  0.34093252     1.10700
C1773       C  0.89678499  0.50283258  0.39065092     0.98800
C1774       C  0.88371105  0.50346220  0.29633490     0.98900
N1775       N  0.51979264  0.07764870  0.32002314    -0.06400
N1776       N  0.53375349  0.10134998  0.30766092    -0.61800
N1777       N  0.98184963  0.07538019  0.36516621    -0.05700
N1778       N  0.96771191  0.09165129  0.38097969    -0.58500
N1779       N  0.51560399  0.07428665  0.36616240    -0.07000
N1780       N  0.52638430  0.08886761  0.38318226    -0.61300
N1781       N  0.98645236  0.07739065  0.31907862    -0.06000
N1782       N  0.97606400  0.10068863  0.30537542    -0.58500
Mn1783     Mn  0.54814440  0.04647802  0.34308005     1.20200
Mn1784     Mn  0.95297904  0.04848265  0.34100377     1.10100
Cl1785     Cl  0.99900650  0.49919779  0.34145392    -0.86500
C1786       C  0.00724277  0.11374198  0.29803072     0.95800
C1787       C  0.99646969  0.09990552  0.39233881     0.95600
N1788       N  0.49617676  0.19432749  0.50103276    -0.37100
N1789       N  0.49287081  0.24871127  0.46976731    -0.57700
N1790       N  0.49532915  0.30571182  0.49962589    -0.37100
N1791       N  0.49406253  0.25162884  0.53096039    -0.57700
C1792       C  0.48935602  0.17335874  0.48490743     0.26400
C1793       C  0.48943334  0.17480899  0.51765674     0.26400
C1794       C  0.48722333  0.32505623  0.48309737     0.26400
C1795       C  0.48893292  0.32681602  0.51581493     0.26400
C1796       C  0.49891639  0.21926115  0.45836280     0.35100
C1797       C  0.49793540  0.27711051  0.45761168     0.35100
C1798       C  0.49823709  0.22314830  0.54322386     0.35100
C1799       C  0.49888229  0.28108128  0.54249717     0.35100
C1800       C  0.47925277  0.13962649  0.49133964    -0.22400
C1801       C  0.47932759  0.14053058  0.51203791    -0.22400
C1802       C  0.47617138  0.35916879  0.48882773    -0.22400
C1803       C  0.47739622  0.36032779  0.50951204    -0.22400
C1804       C  0.50790847  0.22903857  0.43892819    -0.23500
C1805       C  0.50725352  0.26564801  0.43845025    -0.23500
C1806       C  0.50554470  0.23463816  0.56260791    -0.23500
C1807       C  0.50579920  0.27121151  0.56216697    -0.23500
C1808       C  0.49302750  0.18366075  0.46458917    -0.18800
C1809       C  0.49286943  0.18692967  0.53772100    -0.18800
C1810       C  0.49435515  0.31688055  0.53605089    -0.18800
C1811       C  0.49125374  0.31317126  0.46301288    -0.18800
H1812       H  0.47245088  0.11677756  0.48209443     0.14100
H1813       H  0.47256096  0.11850591  0.52182215     0.14100
H1814       H  0.46823313  0.38099250  0.47911671     0.14100
H1815       H  0.47043456  0.38317182  0.51884495     0.14100
H1816       H  0.51369917  0.21159872  0.42627967     0.12400
H1817       H  0.51247039  0.28193991  0.42537616     0.12400
H1818       H  0.50975943  0.21840392  0.57582888     0.12400
H1819       H  0.50998331  0.28850568  0.57501184     0.12400
H1820       H  0.50772271  0.21956987  0.50069788     0.25600
H1821       H  0.50805259  0.28083057  0.49979619     0.25600
N1822       N  0.69764995  0.98934118  0.50015385    -0.37100
N1823       N  0.75327274  0.99281005  0.53057324    -0.57700
N1824       N  0.80883395  0.99328841  0.49993483    -0.37100
N1825       N  0.75316626  0.99196093  0.46956308    -0.57700
C1826       C  0.67719444  0.99655797  0.51650609     0.26400
C1827       C  0.67725334  0.99576492  0.48378652     0.26400
C1828       C  0.82842366  0.00202682  0.51623518     0.26400
C1829       C  0.82818010  0.00232969  0.48355263     0.26400
C1830       C  0.72437924  0.98786565  0.54255804     0.35100
C1831       C  0.78247007  0.98898504  0.54238872     0.35100
C1832       C  0.72449339  0.98513748  0.45785118     0.35100
C1833       C  0.78246963  0.98730354  0.45781484     0.35100
C1834       C  0.64296104  0.00667369  0.51047759    -0.22400
C1835       C  0.64301955  0.00622977  0.48978264    -0.22400
C1836       C  0.86097054  0.01629049  0.51016798    -0.22400
C1837       C  0.86073703  0.01664592  0.48946742    -0.22400
C1838       C  0.73528963  0.98118748  0.56207228    -0.23500
C1839       C  0.77198408  0.98186901  0.56197119    -0.23500
C1840       C  0.73684941  0.47360086  0.43931060    -0.23500
C1841       C  0.77357453  0.47533120  0.43971180    -0.23500
C1842       C  0.68823895  0.99266274  0.53666793    -0.18800
C1843       C  0.68838124  0.99074428  0.46365591    -0.18800
C1844       C  0.81778184  0.99616246  0.46349233    -0.18800
C1845       C  0.81826055  0.99539967  0.53630697    -0.18800
H1846       H  0.62026323  0.01353975  0.51998407     0.14100
H1847       H  0.62039641  0.01264874  0.48025048     0.14100
H1848       H  0.88264948  0.02538929  0.51963661     0.14100
H1849       H  0.88219895  0.02601454  0.47987475     0.14100
H1850       H  0.71861452  0.97722514  0.57520017     0.12400
H1851       H  0.78882084  0.97871764  0.57505757     0.12400
H1852       H  0.72079680  0.46602664  0.42648517     0.12400
H1853       H  0.79143811  0.46927958  0.42726679     0.12400
H1854       H  0.72293277  0.97724336  0.50018205     0.25600
H1855       H  0.78546188  0.97824484  0.49997954     0.25600
C1856       C  0.49926549  0.24592962  0.24956407    -0.03000
C1857       C  0.97237526  0.32193848  0.28861141    -0.26900
C1858       C  0.99903325  0.34778584  0.28588649    -0.14900
C1859       C  0.52506734  0.34221631  0.26852056     0.35700
C1860       C  0.52446873  0.30980004  0.25766723    -0.26300
C1861       C  0.00102443  0.28153889  0.26381952    -0.15500
C1862       C  0.97321122  0.28918025  0.27801172     0.36800
N1863       N  0.94545489  0.26374476  0.28174905    -0.89800
H1864       H  0.95105342  0.32676049  0.29943767     0.17900
H1865       H  0.54340781  0.30725355  0.24545299     0.17900
N1866       N  0.55188894  0.36864144  0.26424293    -0.88800
H1867       H  0.92077051  0.27584911  0.27844170     0.35300
H1868       H  0.94559703  0.25752256  0.29704751     0.40400
H1869       H  0.53875423  0.39109574  0.25835306     0.40000
H1870       H  0.56971965  0.35943915  0.25315901     0.34900
C1871       C  0.00756024  0.14545751  0.26565079    -0.26900
C1872       C  0.00892710  0.14715202  0.28651190    -0.14900
C1873       C  0.50989104  0.18271680  0.29574329     0.35700
C1874       C  0.50866134  0.21372308  0.28380297    -0.26300
C1875       C  0.00517642  0.21115287  0.26363176    -0.15500
C1876       C  0.00649731  0.17675986  0.25413615     0.36800
N1877       N  0.00516439  0.17336654  0.23273103    -0.89800
H1878       H  0.00679016  0.11959941  0.25819903     0.10300
H1879       H  0.51243981  0.23924639  0.29111662     0.17900
N1880       N  0.51485392  0.18541658  0.31709164    -0.88800
H1881       H  0.98298783  0.15780829  0.22890417     0.35300
H1882       H  0.02832460  0.15966497  0.22798146     0.40400
H1883       H  0.49149018  0.17614101  0.32401573     0.40000
H1884       H  0.51760143  0.21218920  0.32145906     0.34900
C1885       C  0.96441183  0.14139089  0.41568859    -0.26900
C1886       C  0.99388484  0.11855736  0.41195021    -0.14900
C1887       C  0.52127057  0.11390318  0.42651509     0.35700
C1888       C  0.51926004  0.13401394  0.44437820    -0.26300
C1889       C  0.48964246  0.15629990  0.44846265    -0.15500
C1890       C  0.96237762  0.16222708  0.43318433     0.36800
N1891       N  0.93195668  0.18588891  0.43571733    -0.89800
H1892       H  0.94333765  0.14410860  0.40459585     0.17900
H1893       H  0.54162556  0.13366056  0.45474651     0.17900
N1894       N  0.55196384  0.09127407  0.42260498    -0.88800
H1895       H  0.93380930  0.20589787  0.42483501     0.35300
H1896       H  0.93195606  0.19852273  0.44972492     0.40400
H1897       H  0.54300885  0.06482643  0.42214417     0.40000
H1898       H  0.57027219  0.09272342  0.43444808     0.34900
C1899       C  0.51851760  0.36027180  0.44199359    -0.26900
C1900       C  0.48843453  0.33945293  0.44637375    -0.14900
C1901       C  0.95894630  0.34379770  0.43481960     0.35700
C1902       C  0.96061483  0.36373246  0.41710386    -0.26300
C1903       C  0.99165500  0.38266548  0.41188372    -0.15500
C1904       C  0.52068843  0.37981668  0.42405198     0.36800
N1905       N  0.55184938  0.40093808  0.41993933    -0.89800
H1906       H  0.54103039  0.36004335  0.45226894     0.17900
H1907       H  0.93792326  0.36317479  0.40696697     0.17900
N1908       N  0.92689698  0.32380130  0.43884536    -0.88800
H1909       H  0.57043747  0.39846434  0.43158376     0.35300
H1910       H  0.54359718  0.42778715  0.41976783     0.40400
H1911       H  0.92787582  0.31129261  0.45281290     0.40000
H1912       H  0.92520207  0.30358149  0.42798557     0.34900
C1913       C  0.62362003  0.46450906  0.42206697    -0.26900
C1914       C  0.62300284  0.49550808  0.41023705    -0.14900
C1915       C  0.64017763  0.02734938  0.41850006     0.35700
C1916       C  0.65952421  0.02528336  0.43647367    -0.26300
C1917       C  0.66152047  0.99325522  0.44732861    -0.15500
C1918       C  0.64264849  0.46312178  0.44016119     0.36800
N1919       N  0.64210775  0.43039146  0.45146040    -0.89800
H1920       H  0.60975019  0.44088040  0.41702759     0.17900
H1921       H  0.67439968  0.04842384  0.44156953     0.17900
N1922       N  0.64009525  0.06013573  0.40741365    -0.88800
H1923       H  0.61563723  0.42637337  0.45617889     0.35300
H1924       H  0.65750120  0.43220588  0.46447981     0.40400
H1925       H  0.66670608  0.06653955  0.40401246     0.40000
H1926       H  0.62965829  0.08039425  0.41668436     0.34900
C1927       C  0.86946598  0.47710979  0.44362773    -0.26900
C1928       C  0.84387098  0.50384226  0.44793866    -0.14900
C1929       C  0.84225697  0.03141478  0.43442145     0.35700
C1930       C  0.86152202  0.03121137  0.41638676    -0.26300
C1931       C  0.88096041  0.50386171  0.41100442    -0.15500
C1932       C  0.88829637  0.47691242  0.42527946     0.36800
N1933       N  0.91436725  0.44924981  0.42099428    -0.89800
H1934       H  0.87335581  0.45539426  0.45416019     0.17900
H1935       H  0.85886048  0.05395290  0.40642775     0.17900
N1936       N  0.82013393  0.06216650  0.43902509    -0.88800
H1937       H  0.91640154  0.43147148  0.43302490     0.35300
H1938       H  0.93943252  0.46147298  0.41961369     0.40400
H1939       H  0.80833008  0.06034349  0.45322979     0.40000
H1940       H  0.79930157  0.06296554  0.42856268     0.34900
C1941       C  0.62044533  0.47441838  0.57712462    -0.26900
C1942       C  0.61990760  0.00182195  0.58857162    -0.14900
C1943       C  0.63158806  0.03280154  0.57837436     0.35700
C1944       C  0.65233592  0.02899654  0.56078449    -0.26300
C1945       C  0.66094608  0.99509236  0.55293014    -0.15500
C1946       C  0.63957324  0.47220660  0.55902991     0.36800
N1947       N  0.64296600  0.43776294  0.54940571    -0.89800
H1948       H  0.60878732  0.45019250  0.58309195     0.17900
H1949       H  0.66279494  0.05256525  0.55342353     0.17900
N1950       N  0.62332872  0.06791820  0.58608812    -0.88800
H1951       H  0.61713672  0.42954690  0.54545279     0.35300
H1952       H  0.65754591  0.43922348  0.53603887     0.40400
H1953       H  0.59562581  0.07171097  0.58474858     0.40000
H1954       H  0.63523158  0.08761996  0.57720766     0.34900
C1955       C  0.85408037  0.02937173  0.56096057    -0.26900
C1956       C  0.84577317  0.99624848  0.55232560    -0.14900
C1957       C  0.85071071  0.46715397  0.56345026     0.35700
C1958       C  0.86785999  0.46831163  0.58208655    -0.26300
C1959       C  0.88064198  0.99940219  0.58980684    -0.15500
C1960       C  0.87203794  0.03136307  0.57942749     0.36800
N1961       N  0.88093501  0.06568420  0.58772032    -0.89800
H1962       H  0.84511054  0.05372691  0.55364947     0.17900
H1963       H  0.87283012  0.44332898  0.58986015     0.17900
N1964       N  0.84086668  0.43275135  0.55546191    -0.88800
H1965       H  0.87155936  0.08634642  0.57850778     0.35300
H1966       H  0.90895308  0.06726797  0.58751910     0.40400
H1967       H  0.82905543  0.43504778  0.54132928     0.40000
H1968       H  0.86455691  0.41798866  0.55325833     0.34900
C1969       C  0.51664497  0.11906374  0.57767879    -0.26900
C1970       C  0.99092240  0.12220238  0.58982983    -0.14900
C1971       C  0.96142083  0.14392398  0.58401542     0.35700
C1972       C  0.96295668  0.16242921  0.56570694    -0.26300
C1973       C  0.48936569  0.16090177  0.55442141    -0.15500
C1974       C  0.51800847  0.13787428  0.55950090     0.36800
N1975       N  0.54889590  0.13476455  0.54656549    -0.89800
H1976       H  0.53884449  0.10164347  0.58167359     0.17900
H1977       H  0.94099488  0.18007478  0.56148929     0.17900
N1978       N  0.93140435  0.14965614  0.59733552    -0.88800
H1979       H  0.56753433  0.11656676  0.55246133     0.35300
H1980       H  0.56151828  0.15967541  0.54632851     0.40400
H1981       H  0.91707244  0.12587604  0.59812133     0.40000
H1982       H  0.91361590  0.16869283  0.59142477     0.34900
C1983       C  0.96477208  0.36760313  0.58267766    -0.26900
C1984       C  0.99728080  0.38287883  0.58887472    -0.14900
C1985       C  0.53000591  0.37650706  0.57693489     0.35700
C1986       C  0.52720039  0.35766860  0.55869157    -0.26300
C1987       C  0.49404426  0.34498242  0.55191901    -0.15500
C1988       C  0.96265241  0.34744467  0.56502663     0.36800
N1989       N  0.92912721  0.33051338  0.56034341    -0.89800
H1990       H  0.94095785  0.37006621  0.59200776     0.17900
H1991       H  0.55134587  0.35055459  0.55038715     0.17900
N1992       N  0.56478122  0.38698160  0.58407149    -0.88800
H1993       H  0.92437151  0.31121248  0.57135081     0.35300
H1994       H  0.93014868  0.31710182  0.54658001     0.40400
H1995       H  0.58458182  0.38145303  0.57329350     0.40000
H1996       H  0.57090410  0.37086061  0.59641288     0.34900
C1997       C  0.56728927  0.24357985  0.24597544    -0.26900
C1998       C  0.53372706  0.24340322  0.23588320    -0.14900
C1999       C  0.53485099  0.23934554  0.21456081     0.35700
C2000       C  0.56802433  0.24020776  0.20436919    -0.26300
C2001       C  0.60052021  0.24332488  0.21469411    -0.15500
C2002       C  0.60022428  0.24404482  0.23581159     0.36800
N2003       N  0.63260961  0.24515192  0.24751897    -0.89800
H2004       H  0.56785317  0.24486083  0.26222498     0.17900
H2005       H  0.56840222  0.23796325  0.18813327     0.17900
N2006       N  0.50333161  0.23234270  0.20300750    -0.88800
H2007       H  0.63266542  0.26949010  0.25534285     0.35300
H2008       H  0.65561923  0.24470227  0.23852271     0.40400
H2009       H  0.50688408  0.20781348  0.19559226     0.40000
H2010       H  0.50096868  0.25223868  0.19207590     0.34900
C2011       C  0.90504508  0.22570094  0.22921173    -0.26900
C2012       C  0.90029218  0.25414668  0.21595378    -0.14900
C2013       C  0.92655837  0.28110092  0.21518931     0.35700
C2014       C  0.95794355  0.27759167  0.22684011    -0.26300
C2015       C  0.96457669  0.24743088  0.23918049    -0.15500
C2016       C  0.93542608  0.22290136  0.24149043     0.36800
N2017       N  0.93436045  0.19672066  0.25712880    -0.89800
H2018       H  0.88404467  0.20592793  0.23071419     0.17900
H2019       H  0.97833406  0.29800741  0.22566903     0.17900
N2020       N  0.92192786  0.31145387  0.20223215    -0.88800
H2021       H  0.93040066  0.17155075  0.25058545     0.35300
H2022       H  0.91214367  0.20226353  0.26631505     0.40400
H2023       H  0.92288703  0.30207778  0.18744016     0.40000
H2024       H  0.94331963  0.32923904  0.20381625     0.34900
C2025       C  0.72841117  0.11064096  0.05834336    -0.26900
C2026       C  0.76043681  0.09368622  0.05241592    -0.14900
C2027       C  0.79196601  0.09867294  0.06380917     0.35700
C2028       C  0.79012468  0.11896486  0.08150591    -0.26300
C2029       C  0.75746656  0.13389387  0.08829502    -0.15500
C2030       C  0.72651194  0.13083323  0.07614216     0.36800
N2031       N  0.69310187  0.14745149  0.08204523    -0.89800
H2032       H  0.70436314  0.10656051  0.04952194     0.17900
H2033       H  0.81422655  0.12173812  0.09043260     0.17900
N2034       N  0.82590272  0.08275929  0.05822237    -0.88800
H2035       H  0.67290126  0.14164780  0.07169572     0.35300
H2036       H  0.69670822  0.17518670  0.08159308     0.40400
H2037       H  0.82445197  0.06930025  0.04448508     0.40000
H2038       H  0.83243464  0.06367730  0.06908358     0.34900
C2039       C  0.72402417  0.39092412  0.05869198    -0.26900
C2040       C  0.75565011  0.40888808  0.05370266    -0.14900
C2041       C  0.78578059  0.40618452  0.06632745     0.35700
C2042       C  0.78309908  0.38685373  0.08428843    -0.26300
C2043       C  0.75076158  0.37042008  0.08995803    -0.15500
C2044       C  0.72127074  0.37185311  0.07672835     0.36800
N2045       N  0.68840531  0.35423165  0.08150899    -0.89800
H2046       H  0.70076055  0.39327198  0.04903066     0.17900
H2047       H  0.80608248  0.38567605  0.09419916     0.17900
N2048       N  0.81829581  0.42465318  0.06129387    -0.88800
H2049       H  0.68326069  0.33590269  0.06999458     0.35300
H2050       H  0.66773413  0.37338450  0.08160763     0.40400
H2051       H  0.82843351  0.41317715  0.04806905     0.40000
H2052       H  0.83776923  0.42056777  0.07233988     0.34900
C2053       C  0.72001631  0.11976418  0.91977754    -0.26900
C2054       C  0.75310330  0.12528471  0.91010033    -0.14900
C2055       C  0.78518696  0.11418275  0.91969901     0.35700
C2056       C  0.78312561  0.09692077  0.93833351    -0.26300
C2057       C  0.74994064  0.09064761  0.94756581    -0.15500
C2058       C  0.71805263  0.10333560  0.93854135     0.36800
N2059       N  0.68328894  0.09901092  0.94766785    -0.89800
H2060       H  0.69521957  0.12755619  0.91254497     0.17900
H2061       H  0.80737981  0.08653234  0.94523254     0.17900
N2062       N  0.81962492  0.11929895  0.91034953    -0.88800
H2063       H  0.66880291  0.08106853  0.93881416     0.35300
H2064       H  0.68521476  0.08796649  0.96199992     0.40400
H2065       H  0.82096132  0.10233383  0.89783325     0.40000
H2066       H  0.84035583  0.11117625  0.91990203     0.34900
C2067       C  0.72867315  0.38844511  0.94407415    -0.26900
C2068       C  0.75815333  0.41023417  0.94824117    -0.14900
C2069       C  0.78830133  0.40958949  0.93535962     0.35700
C2070       C  0.78760464  0.38824561  0.91796190    -0.26300
C2071       C  0.75720665  0.36802342  0.91309370    -0.15500
C2072       C  0.72794634  0.36706594  0.92667938     0.36800
N2073       N  0.69757789  0.34461317  0.92276331    -0.89800
H2074       H  0.70570717  0.38906595  0.95412401     0.17900
H2075       H  0.81033849  0.38855771  0.90775957     0.17900
N2076       N  0.81920748  0.43099818  0.93985934    -0.88800
H2077       H  0.67836026  0.34735773  0.93416314     0.35300
H2078       H  0.70659397  0.31800844  0.92318778     0.40400
H2079       H  0.81173289  0.45792338  0.93859467     0.40000
H2080       H  0.83947246  0.42656592  0.92919206     0.34900
C2081       C  0.99987703  0.21718030  0.71585255    -0.26900
C2082       C  0.00020985  0.21612155  0.73710124    -0.14900
C2083       C  0.49647061  0.18376396  0.74720714     0.35700
C2084       C  0.49449110  0.15241669  0.73561610    -0.26300
C2085       C  0.99720544  0.15216411  0.71369656    -0.15500
C2086       C  0.99881193  0.18565556  0.70416627     0.36800
N2087       N  0.99936556  0.18750182  0.68261181    -0.89800
H2088       H  0.99973593  0.24239610  0.70804051     0.17900
H2089       H  0.49130337  0.12685394  0.74304537     0.17900
N2090       N  0.49464527  0.18057361  0.76861716    -0.88800
H2091       H  0.00104427  0.21406473  0.67786527     0.35300
H2092       H  0.97477012  0.17783496  0.67741474     0.40400
H2093       H  0.51531165  0.16341021  0.77326775     0.40000
H2094       H  0.47014418  0.16877655  0.77235187     0.34900
C2095       C  0.53515264  0.32878538  0.71471903    -0.26900
C2096       C  0.00460926  0.35130081  0.71503452    -0.14900
C2097       C  0.97639448  0.34486228  0.72859090     0.35700
C2098       C  0.97655539  0.31343624  0.74003089    -0.26300
C2099       C  0.00337913  0.28643151  0.73779923    -0.15500
C2100       C  0.53455446  0.29664247  0.72579728     0.36800
N2101       N  0.56444959  0.27236037  0.72415151    -0.89800
H2102       H  0.55761765  0.33375620  0.70475218     0.17900
H2103       H  0.95549546  0.31113451  0.75106358     0.17900
N2104       N  0.94771067  0.37064788  0.73097386    -0.88800
H2105       H  0.58750303  0.28583661  0.72879472     0.35300
H2106       H  0.56780319  0.26540104  0.70903642     0.40400
H2107       H  0.95869974  0.39390332  0.73705326     0.40000
H2108       H  0.92847480  0.36170188  0.74126708     0.34900
C2109       C  0.56435521  0.22504251  0.76217184    -0.26900
C2110       C  0.53810226  0.25262000  0.76416432    -0.14900
C2111       C  0.54664819  0.28164049  0.77720451     0.35700
C2112       C  0.57872053  0.28125463  0.78834021    -0.26300
C2113       C  0.60313238  0.25250096  0.78703217    -0.15500
C2114       C  0.59569856  0.22423867  0.77359323     0.36800
N2115       N  0.61997218  0.19465428  0.77059258    -0.89800
H2116       H  0.56163531  0.20365080  0.75137898     0.17900
H2117       H  0.58417744  0.30347916  0.79835857     0.17900
N2118       N  0.52282627  0.31179430  0.77921999    -0.88800
H2119       H  0.62150540  0.17976638  0.78381296     0.35300
H2120       H  0.64534956  0.20452129  0.76695243     0.40400
H2121       H  0.53682263  0.33475026  0.77501049     0.40000
H2122       H  0.51569442  0.31448892  0.79435072     0.34900
C2123       C  0.90118821  0.24626104  0.76545782    -0.26900
C2124       C  0.90240775  0.24684183  0.78634878    -0.14900
C2125       C  0.93602287  0.24767796  0.79612483     0.35700
C2126       C  0.96764468  0.24836478  0.78461790    -0.26300
C2127       C  0.96701855  0.24957124  0.76338745    -0.15500
C2128       C  0.93269411  0.24750863  0.75394575     0.36800
N2129       N  0.92959191  0.24749041  0.73250514    -0.89800
H2130       H  0.87542580  0.24529121  0.75793483     0.17900
H2131       H  0.99265811  0.24719325  0.79271047     0.17900
N2132       N  0.93933731  0.24729485  0.81764341    -0.88800
H2133       H  0.91342378  0.26925776  0.72833104     0.35300
H2134       H  0.91658753  0.22401702  0.72816401     0.40400
H2135       H  0.91444282  0.24594928  0.82482338     0.40000
H2136       H  0.95085120  0.27154694  0.82200758     0.34900
C2137       C  0.81247498  0.02227389  0.74395247    -0.26900
C2138       C  0.78413639  0.99858307  0.73883496    -0.14900
C2139       C  0.79074037  0.46936901  0.72500551     0.35700
C2140       C  0.82340769  0.46947498  0.71424179    -0.26300
C2141       C  0.85177899  0.99770883  0.71809167    -0.15500
C2142       C  0.84515486  0.02274985  0.73353816     0.36800
N2143       N  0.87162643  0.04824696  0.73958360    -0.89800
H2144       H  0.81031802  0.04050322  0.75652642     0.17900
H2145       H  0.82783655  0.44956707  0.70258401     0.17900
N2146       N  0.76562310  0.44140296  0.72112950    -0.88800
H2147       H  0.87675859  0.06547110  0.72762449     0.35300
H2148       H  0.89528928  0.03444784  0.74319416     0.40400
H2149       H  0.77823976  0.41693397  0.72426031     0.40000
H2150       H  0.75927132  0.44167157  0.70585434     0.34900
C2151       C  0.71492459  0.50612074  0.71679997    -0.26900
C2152       C  0.71328810  0.00288593  0.73710107    -0.14900
C2153       C  0.67824741  0.00456154  0.74587234     0.35700
C2154       C  0.64753153  0.00586748  0.73377041    -0.26300
C2155       C  0.65022923  0.00613208  0.71290080    -0.15500
C2156       C  0.68425970  0.50766371  0.70453471     0.36800
N2157       N  0.68940310  0.51029053  0.68317084    -0.89800
H2158       H  0.74067804  0.50844834  0.70945953     0.17900
H2159       H  0.62122074  0.00592913  0.74081576     0.17900
N2160       N  0.67353384  0.00344293  0.76719307    -0.88800
H2161       H  0.70202069  0.53468072  0.68032331     0.35300
H2162       H  0.66506825  0.51098705  0.67547273     0.40400
H2163       H  0.65763574  0.98141139  0.77074582     0.40000
H2164       H  0.65964217  0.02664209  0.77164219     0.34900
C2165       C  0.74718117  0.06710773  0.75380742    -0.26900
C2166       C  0.74523382  0.03392316  0.76410689    -0.14900
C2167       C  0.74051846  0.03568991  0.78537349     0.35700
C2168       C  0.74195407  0.06894076  0.79535299    -0.26300
C2169       C  0.74692647  0.10095974  0.78491252    -0.15500
C2170       C  0.74890883  0.10012104  0.76380498     0.36800
N2171       N  0.75252232  0.13201711  0.75194842    -0.89800
H2172       H  0.74913692  0.06719280  0.73756918     0.17900
H2173       H  0.73883423  0.06975212  0.81154071     0.17900
N2174       N  0.73227750  0.00476345  0.79707387    -0.88800
H2175       H  0.77727948  0.13046492  0.74453291     0.35300
H2176       H  0.75306926  0.15510542  0.76084371     0.40400
H2177       H  0.70755904  0.00913100  0.80422123     0.40000
H2178       H  0.75183157  0.00215856  0.80822343     0.34900
C2179       C  0.77541907  0.45687189  0.77737454    -0.26900
C2180       C  0.74667932  0.46216605  0.76380298    -0.14900
C2181       C  0.72307908  0.43247319  0.76085817     0.35700
C2182       C  0.72598665  0.40205696  0.77307576    -0.26300
C2183       C  0.75351598  0.39823769  0.78709806    -0.15500
C2184       C  0.77914723  0.42561487  0.78892176     0.36800
N2185       N  0.80814178  0.42239353  0.80300962    -0.89800
H2186       H  0.79494029  0.47793377  0.77928614     0.17900
H2187       H  0.70708021  0.38042471  0.77100864     0.17900
N2188       N  0.69765633  0.43113763  0.74479067    -0.88800
H2189       H  0.82287841  0.44616020  0.80364984     0.35300
H2190       H  0.82578568  0.40282329  0.79749093     0.40400
H2191       H  0.67217121  0.42668948  0.75091901     0.40000
H2192       H  0.70403896  0.40917808  0.73562274     0.34900
C2193       C  0.59243005  0.22111381  0.06349756    -0.26900
C2194       C  0.58850909  0.25451892  0.05416401    -0.14900
C2195       C  0.60508685  0.28490839  0.06256798     0.35700
C2196       C  0.62397077  0.28131870  0.08053629    -0.26300
C2197       C  0.62738084  0.24815471  0.09028898    -0.15500
C2198       C  0.61165191  0.21751656  0.08152881     0.36800
N2199       N  0.61403549  0.18324635  0.09119680    -0.89800
H2200       H  0.57911740  0.19805749  0.05708002     0.17900
H2201       H  0.63542389  0.30509063  0.08716418     0.17900
N2202       N  0.60199602  0.31999358  0.05384537    -0.88800
H2203       H  0.60181257  0.16349649  0.08244896     0.35300
H2204       H  0.59924850  0.18494966  0.10454146     0.40400
H2205       H  0.58712927  0.31967092  0.04059837     0.40000
H2206       H  0.62782840  0.32812048  0.04983288     0.34900
C2207       C  0.88861245  0.28189898  0.05874049    -0.26900
C2208       C  0.90973241  0.25194785  0.05381096    -0.14900
C2209       C  0.91050637  0.22222120  0.06664266     0.35700
C2210       C  0.89124476  0.22337875  0.08468836    -0.26300
C2211       C  0.87151603  0.25409639  0.09032048    -0.15500
C2212       C  0.86961933  0.28343914  0.07687343     0.36800
N2213       N  0.84890252  0.31511419  0.08109084    -0.89800
H2214       H  0.88835835  0.30492887  0.04888932     0.17900
H2215       H  0.89281696  0.20052629  0.09463374     0.17900
N2216       N  0.93203269  0.19141782  0.06167953    -0.88800
H2217       H  0.85946395  0.32781922  0.09374964     0.35300
H2218       H  0.82232612  0.30782345  0.08389313     0.40400
H2219       H  0.91525426  0.16913756  0.06131693     0.40000
H2220       H  0.95076057  0.18759147  0.07316607     0.34900
C2221       C  0.60637149  0.21736897  0.94110283    -0.26900
C2222       C  0.59491762  0.25017977  0.94921473    -0.14900
C2223       C  0.60630200  0.28250166  0.94036927     0.35700
C2224       C  0.62642282  0.28114605  0.92263594    -0.26300
C2225       C  0.63625706  0.24833640  0.91374147    -0.15500
C2226       C  0.62763966  0.21606980  0.92367240     0.36800
N2227       N  0.64009632  0.18217079  0.91599251    -0.89800
H2228       H  0.59774505  0.19271256  0.94808981     0.17900
H2229       H  0.63345714  0.30611484  0.91547557     0.17900
N2230       N  0.59695790  0.31706111  0.94856302    -0.88800
H2231       H  0.63089266  0.16115423  0.92491825     0.35300
H2232       H  0.66805006  0.18214809  0.91732013     0.40400
H2233       H  0.58318970  0.31498940  0.96218247     0.40000
H2234       H  0.57962726  0.32966258  0.93844268     0.34900
C2235       C  0.88827910  0.27537786  0.94296764    -0.26900
C2236       C  0.90931411  0.24573555  0.94837336    -0.14900
C2237       C  0.90915629  0.21452419  0.93625644     0.35700
C2238       C  0.88939428  0.21448258  0.91843037    -0.26300
C2239       C  0.87032469  0.24503095  0.91221959    -0.15500
C2240       C  0.86865935  0.27542392  0.92500717     0.36800
N2241       N  0.84771625  0.30644240  0.91959031    -0.89800
H2242       H  0.88860168  0.29918009  0.95234112     0.17900
H2243       H  0.89032009  0.19084395  0.90893679     0.17900
N2244       N  0.92952422  0.18289723  0.94124113    -0.88800
H2245       H  0.85008622  0.32663380  0.93042955     0.35300
H2246       H  0.82071861  0.29895890  0.91955456     0.40400
H2247       H  0.94193892  0.18519511  0.95520930     0.40000
H2248       H  0.94992608  0.17995016  0.93051848     0.34900
C2249       C  0.78433803  0.51004908  0.28287956    -0.26900
C2250       C  0.78514730  0.50479382  0.26181076    -0.14900
C2251       C  0.82071366  0.99974001  0.25322493     0.35700
C2252       C  0.85218249  0.99972531  0.26465747    -0.26300
C2253       C  0.84961053  0.50498698  0.28505631    -0.15500
C2254       C  0.81578639  0.50952969  0.29454819     0.36800
N2255       N  0.81205158  0.51314473  0.31597099    -0.89800
H2256       H  0.75931060  0.51501749  0.29067910     0.17900
H2257       H  0.87790412  0.99623051  0.25716732     0.17900
N2258       N  0.82394218  0.99520601  0.23195763    -0.88800
H2259       H  0.80157723  0.53868440  0.31894485     0.35300
H2260       H  0.83674424  0.51149701  0.32329697     0.40400
H2261       H  0.83748442  0.97104461  0.22909622     0.40000
H2262       H  0.83967123  0.01601091  0.22637848     0.34900
C2263       C  0.65640966  0.02656429  0.27353966    -0.26900
C2264       C  0.65121646  0.49725488  0.28602771    -0.14900
C2265       C  0.67969039  0.47247394  0.28814128     0.35700
C2266       C  0.71040819  0.47543446  0.27584864    -0.26300
C2267       C  0.71444658  0.50324374  0.26162635    -0.15500
C2268       C  0.68642952  0.02868083  0.26078051     0.36800
N2269       N  0.68479635  0.05449390  0.24496630    -0.89800
H2270       H  0.63473056  0.04587810  0.27178216     0.17900
H2271       H  0.73201133  0.45611749  0.27767283     0.17900
N2272       N  0.67782435  0.44486892  0.30307038    -0.88800
H2273       H  0.68153681  0.07989827  0.25143899     0.35300
H2274       H  0.66207073  0.04941092  0.23626106     0.40400
H2275       H  0.67770218  0.45739860  0.31715169     0.40000
H2276       H  0.70082429  0.42863163  0.30256606     0.34900
C2277       C  0.75728201  0.07038775  0.24690197    -0.26900
C2278       C  0.75515079  0.03718870  0.23650615    -0.14900
C2279       C  0.75943564  0.03820261  0.21521370     0.35700
C2280       C  0.75937935  0.07128201  0.20525168    -0.26300
C2281       C  0.75747226  0.10368125  0.21580313    -0.15500
C2282       C  0.75782124  0.10332528  0.23693739     0.36800
N2283       N  0.75841789  0.13558973  0.24881635    -0.89800
H2284       H  0.75645358  0.07079036  0.26316411     0.17900
H2285       H  0.76133919  0.07164744  0.18900751     0.17900
N2286       N  0.76626468  0.00659926  0.20350608    -0.88800
H2287       H  0.73439157  0.13693501  0.25698118     0.35300
H2288       H  0.75927517  0.15847879  0.23990075     0.40400
H2289       H  0.79135586  0.00925253  0.19657486     0.40000
H2290       H  0.74721304  0.00540688  0.19204949     0.34900
C2291       C  0.71861587  0.42628470  0.21289484    -0.26900
C2292       C  0.74422012  0.39930747  0.21643452    -0.14900
C2293       C  0.77015466  0.40491695  0.23152379     0.35700
C2294       C  0.77181263  0.43823577  0.24119248    -0.26300
C2295       C  0.74827649  0.46714101  0.23660399    -0.15500
C2296       C  0.71986380  0.45946244  0.22300627     0.36800
N2297       N  0.69196891  0.48519882  0.21935437    -0.89800
H2298       H  0.69775905  0.42195498  0.20185888     0.17900
H2299       H  0.79118772  0.44022658  0.25313692     0.17900
N2300       N  0.79464543  0.37723868  0.23802550    -0.88800
H2301       H  0.66756470  0.47383948  0.22365490     0.35300
H2302       H  0.69066584  0.49008276  0.20393775     0.40400
H2303       H  0.78846812  0.35241972  0.23177173     0.40000
H2304       H  0.79083754  0.37388178  0.25345891     0.34900
C2305       C  0.75108055  0.00293465  0.24969356    -0.03000
N2306       N  0.94367998  0.75470080  0.00163590    -0.37100
N2307       N  0.49815484  0.75962929  0.97032227    -0.57700
N2308       N  0.55378961  0.76090537  0.00069107    -0.37100
N2309       N  0.49825549  0.75977194  0.03125384    -0.57700
C2310       C  0.92286188  0.74575235  0.98585264     0.26400
C2311       C  0.92496974  0.74714951  0.01850894     0.26400
C2312       C  0.57388419  0.75329014  0.98426130     0.26400
C2313       C  0.57381321  0.75279270  0.01697101     0.26400
C2314       C  0.96756177  0.75628689  0.95862717     0.35100
C2315       C  0.52703069  0.76476959  0.95837856     0.35100
C2316       C  0.97276646  0.76115388  0.04315896     0.35100
C2317       C  0.52721981  0.76541104  0.04294042     0.35100
C2318       C  0.89025874  0.73285085  0.99273905    -0.22400
C2319       C  0.89162687  0.73365823  0.01341182    -0.22400
C2320       C  0.60752328  0.74107845  0.99016381    -0.22400
C2321       C  0.60741539  0.74062952  0.01085702    -0.22400
C2322       C  0.97679224  0.76357340  0.93889170    -0.23500
C2323       C  0.51601361  0.77250522  0.93897561    -0.23500
C2324       C  0.98448524  0.77168784  0.06199340    -0.23500
C2325       C  0.51649843  0.77501242  0.06220091    -0.23500
C2326       C  0.93205682  0.75049376  0.96546147    -0.18800
C2327       C  0.93671989  0.75380707  0.03829469    -0.18800
C2328       C  0.56301843  0.75800777  0.03713450    -0.18800
C2329       C  0.56310127  0.75899069  0.96419578    -0.18800
H2330       H  0.86782851  0.72384121  0.98380197     0.14100
H2331       H  0.87044994  0.72543698  0.02352682     0.14100
H2332       H  0.62988803  0.73342372  0.98059731     0.14100
H2333       H  0.62964438  0.73264013  0.02031431     0.14100
H2334       H  0.95892573  0.76749834  0.92629268     0.12400
H2335       H  0.53256769  0.77673930  0.92583538     0.12400
H2336       H  0.96828763  0.77787567  0.07510505     0.12400
H2337       H  0.53342488  0.78039506  0.07502520     0.12400
H2338       H  0.96761282  0.76876950  0.00090568     0.25600
H2339       H  0.52931870  0.77445512  0.00078796     0.25600
C2340       C  0.74638759  0.49796627  0.75156369    -0.03000
C2341       C  0.50171439  0.75207234  0.75039293    -0.03000
N2342       N  0.74732744  0.55680976  0.00179349    -0.37100
N2343       N  0.75634793  0.00078827  0.03129000    -0.57700
N2344       N  0.74993902  0.94467213  0.00114546    -0.37100
N2345       N  0.74864457  0.99959715  0.97032731    -0.57700
C2346       C  0.75488191  0.57703238  0.01808020     0.26400
C2347       C  0.75245368  0.57744831  0.98543718     0.26400
C2348       C  0.75686925  0.92443896  0.01745003     0.26400
C2349       C  0.75563841  0.92388756  0.98477070     0.26400
C2350       C  0.74722091  0.52992421  0.04406601     0.35100
C2351       C  0.75062512  0.97245175  0.04339792     0.35100
C2352       C  0.74289056  0.53055360  0.95929157     0.35100
C2353       C  0.74370758  0.97033253  0.95873248     0.35100
C2354       C  0.76421136  0.61122194  0.01206027    -0.22400
C2355       C  0.76254551  0.61152929  0.99141239    -0.22400
C2356       C  0.76605184  0.88994315  0.01144463    -0.22400
C2357       C  0.76545358  0.88963724  0.99075035    -0.22400
C2358       C  0.73926753  0.51912989  0.06344764    -0.23500
C2359       C  0.74392106  0.98399915  0.06288791    -0.23500
C2360       C  0.73524738  0.51956666  0.93985258    -0.23500
C2361       C  0.73454204  0.98039328  0.93938804    -0.23500
C2362       C  0.75174702  0.56588840  0.03821817    -0.18800
C2363       C  0.74653934  0.56666204  0.96538267    -0.18800
C2364       C  0.75075540  0.93471299  0.96466855    -0.18800
C2365       C  0.75368963  0.93613253  0.03755350    -0.18800
H2366       H  0.77117329  0.63369392  0.02155783     0.14100
H2367       H  0.76798858  0.63430879  0.98191982     0.14100
H2368       H  0.77257645  0.86740778  0.02097026     0.14100
H2369       H  0.77128694  0.86675225  0.98121249     0.14100
H2370       H  0.73394516  0.53590285  0.07643500     0.12400
H2371       H  0.73885429  0.96779312  0.07601201     0.12400
H2372       H  0.72953630  0.53604317  0.92691935     0.12400
H2373       H  0.72981210  0.96319595  0.92656095     0.12400
H2374       H  0.73566055  0.53170956  0.00192950     0.25600
H2375       H  0.73857110  0.97009611  0.00131401     0.25600
N2376       N  0.73422602  0.82637668  0.86580916    -0.06700
N2377       N  0.72204173  0.84234079  0.88220883    -0.58800
N2378       N  0.76993242  0.82731180  0.81970207    -0.06300
N2379       N  0.78281035  0.85102055  0.80696149    -0.60900
N2380       N  0.73454630  0.82786737  0.81948880    -0.05900
N2381       N  0.72280010  0.85179347  0.80642886    -0.58800
N2382       N  0.76949151  0.82585435  0.86570623    -0.05600
N2383       N  0.78209570  0.84150688  0.88197605    -0.61300
C2384       C  0.75219827  0.85155693  0.89218877     0.95500
C2385       C  0.75319670  0.86598840  0.79863776     0.95300
N2386       N  0.82877029  0.72998507  0.81968209    -0.06800
N2387       N  0.85151236  0.71723709  0.80612363    -0.59400
N2388       N  0.82646931  0.76568585  0.86622710    -0.05000
N2389       N  0.83930933  0.77800192  0.88335092    -0.60600
N2390       N  0.82624627  0.73048139  0.86622748    -0.06900
N2391       N  0.83902287  0.71821395  0.88337387    -0.59600
N2392       N  0.82912902  0.76523473  0.81975588    -0.04600
N2393       N  0.85209717  0.77707354  0.80624887    -0.60700
Mn2394     Mn  0.79973849  0.79670492  0.84260864     1.18400
C2395       C  0.86542600  0.74690311  0.79762653     0.97600
C2396       C  0.84699294  0.74813413  0.89395976     0.98300
N2397       N  0.67302746  0.76845673  0.81984573    -0.06900
N2398       N  0.64931465  0.78109765  0.80691795    -0.63200
N2399       N  0.67460366  0.73322526  0.86590874    -0.05700
N2400       N  0.65845637  0.72133458  0.88221154    -0.63900
N2401       N  0.67502784  0.76841266  0.86590600    -0.06400
N2402       N  0.65924545  0.78114297  0.88222769    -0.63500
N2403       N  0.67284490  0.73318877  0.81978250    -0.05300
N2404       N  0.64917400  0.72130868  0.80671866    -0.64200
Mn2405     Mn  0.70335262  0.79859096  0.84254418     1.10700
C2406       C  0.63493268  0.75138180  0.79858845     0.98800
C2407       C  0.64902727  0.75151128  0.89230777     0.98900
N2408       N  0.76787024  0.67230635  0.86569028    -0.06400
N2409       N  0.78020697  0.65656027  0.88198811    -0.61800
N2410       N  0.73250728  0.67116845  0.81946645    -0.05700
N2411       N  0.71966078  0.64838536  0.80613319    -0.58500
N2412       N  0.76789317  0.67028763  0.81930724    -0.07000
N2413       N  0.77965802  0.64684054  0.80578583    -0.61300
N2414       N  0.73260528  0.67292673  0.86580488    -0.06000
N2415       N  0.72023130  0.65747706  0.88219690    -0.58500
Mn2416     Mn  0.79872978  0.69990963  0.84248719     1.20200
Mn2417     Mn  0.70229733  0.70182583  0.84254936     1.10100
Cl2418     Cl  0.75099510  0.74924432  0.84220530    -0.86500
C2419       C  0.75025224  0.64729823  0.89218439     0.95800
C2420       C  0.74926813  0.63389636  0.79736597     0.95600
N2421       N  0.72655012  0.83041873  0.18226127    -0.06700
N2422       N  0.71306088  0.85368171  0.19534222    -0.58800
N2423       N  0.76390265  0.82904735  0.13679362    -0.06300
N2424       N  0.77671141  0.84569264  0.12093859    -0.60900
N2425       N  0.72866059  0.82790289  0.13615377    -0.05900
N2426       N  0.71681431  0.84369138  0.11973888    -0.58800
N2427       N  0.76193741  0.83083213  0.18272676    -0.05600
N2428       N  0.77309935  0.85416959  0.19618341    -0.61300
C2429       C  0.74242499  0.86777944  0.20421267     0.95500
C2430       C  0.74708960  0.85477509  0.11038977     0.95300
N2431       N  0.82581887  0.73688175  0.13694938    -0.06800
N2432       N  0.84195223  0.72465716  0.12060721    -0.59400
N2433       N  0.82548082  0.77251941  0.18326184    -0.05000
N2434       N  0.84843683  0.78547419  0.19648194    -0.60600
N2435       N  0.82644896  0.73726711  0.18335172    -0.06900
N2436       N  0.84979784  0.72564728  0.19677931    -0.59600
N2437       N  0.82450611  0.77203797  0.13683149    -0.04600
N2438       N  0.83958182  0.78446657  0.12031336    -0.60700
Mn2439     Mn  0.79472961  0.80194408  0.16015027     1.18400
C2440       C  0.85032230  0.75459754  0.11030605     0.97600
C2441       C  0.86329712  0.75595818  0.20495036     0.98300
N2442       N  0.67123563  0.76751907  0.13579503    -0.06900
N2443       N  0.65462747  0.77913641  0.11959424    -0.63200
N2444       N  0.66998180  0.73273955  0.18210753    -0.05700
N2445       N  0.64740722  0.71943058  0.19536908    -0.63900
N2446       N  0.66803089  0.76797461  0.18202462    -0.06400
N2447       N  0.64383704  0.77923506  0.19525219    -0.63500
N2448       N  0.67214622  0.73234425  0.13598766    -0.05300
N2449       N  0.65606299  0.71926778  0.11993094    -0.64200
Mn2450     Mn  0.69768557  0.79934535  0.15920574     1.10700
C2451       C  0.64513325  0.74879357  0.10986158     0.98800
C2452       C  0.63180270  0.74866676  0.20375063     0.98900
N2453       N  0.76802013  0.67582962  0.18282336    -0.06400
N2454       N  0.78102403  0.65385763  0.19650371    -0.61800
N2455       N  0.73347105  0.67631623  0.13633658    -0.05700
N2456       N  0.72171225  0.66148724  0.11964216    -0.58500
N2457       N  0.76874380  0.67716743  0.13642470    -0.07000
N2458       N  0.78172131  0.66277510  0.11973921    -0.61300
N2459       N  0.73269930  0.67464812  0.18263685    -0.06000
N2460       N  0.72108162  0.65176526  0.19620819    -0.58500
Mn2461     Mn  0.79812201  0.70588586  0.16009252     1.20200
Mn2462     Mn  0.70134847  0.70309823  0.15947347     1.10100
Cl2463     Cl  0.74794651  0.75261890  0.16005505    -0.86500
C2464       C  0.75148203  0.63953402  0.20503380     0.95800
C2465       C  0.75204112  0.65320640  0.10938707     0.95600
N2466       N  0.97840042  0.57842267  0.68319960    -0.06700
N2467       N  0.96617239  0.60187551  0.69651873    -0.58800
N2468       N  0.51238949  0.57921009  0.63568743    -0.06300
N2469       N  0.52369629  0.59582630  0.61941934    -0.60900
N2470       N  0.97527287  0.57775968  0.63712273    -0.05900
N2471       N  0.96110443  0.59450461  0.62159031    -0.58800
N2472       N  0.51423353  0.58076968  0.68192694    -0.05600
N2473       N  0.52640234  0.60467048  0.69482342    -0.61300
C2474       C  0.99622730  0.61719945  0.70381323     0.95500
C2475       C  0.98995262  0.60528546  0.61086020     0.95300
N2476       N  0.57432289  0.98636726  0.63445524    -0.06800
N2477       N  0.59122649  0.97376450  0.61847759    -0.59400
N2478       N  0.57731705  0.52207259  0.68071211    -0.05000
N2479       N  0.60079439  0.53500572  0.69363092    -0.60600
N2480       N  0.57847928  0.98637791  0.68044554    -0.06900
N2481       N  0.60321608  0.97479452  0.69310332    -0.59600
N2482       N  0.57367195  0.52257234  0.63459437    -0.04600
N2483       N  0.58901000  0.53569388  0.61834937    -0.60700
Mn2484     Mn  0.54509861  0.55193390  0.65844218     1.18400
C2485       C  0.59974951  0.50630732  0.60792237     0.97600
C2486       C  0.61642282  0.50543799  0.70152587     0.98300
N2487       N  0.91857636  0.51748666  0.63798216    -0.06900
N2488       N  0.90201996  0.53013511  0.62201792    -0.63200
N2489       N  0.92172462  0.98141897  0.68336929    -0.05700
N2490       N  0.89938713  0.96865242  0.69696957    -0.63900
N2491       N  0.91968421  0.51581324  0.68413700    -0.06400
N2492       N  0.89605740  0.52684710  0.69771034    -0.63500
N2493       N  0.92051425  0.98187932  0.63703958    -0.05300
N2494       N  0.90562154  0.96961965  0.62044748    -0.64200
Mn2495     Mn  0.94717877  0.54810872  0.66091785     1.10700
C2496       C  0.89330922  0.50053859  0.61141457     0.98800
C2497       C  0.88276387  0.49621162  0.70551219     0.98900
N2498       N  0.51980433  0.92336172  0.68072555    -0.06400
N2499       N  0.53345129  0.89882869  0.69285010    -0.61800
N2500       N  0.98052352  0.92412992  0.63545419    -0.05700
N2501       N  0.96734829  0.90939974  0.61904887    -0.58500
N2502       N  0.51692651  0.92749823  0.63475948    -0.07000
N2503       N  0.52900974  0.91323703  0.61787697    -0.61300
N2504       N  0.98339200  0.92127468  0.68164920    -0.06000
N2505       N  0.97212973  0.89716679  0.69461566    -0.58500
Mn2506     Mn  0.54813650  0.95517162  0.65788181     1.20200
Mn2507     Mn  0.95072224  0.95138902  0.65963077     1.10100
Cl2508     Cl  0.99727140  0.50121591  0.65961569    -0.86500
C2509       C  0.00270099  0.88234388  0.70193162     0.95800
C2510       C  0.99676303  0.90084368  0.60797506     0.95600
N2511       N  0.98243627  0.92246773  0.31786237    -0.06700
N2512       N  0.96996619  0.89966194  0.30448811    -0.58800
N2513       N  0.51425985  0.92294185  0.36466725    -0.06300
N2514       N  0.52500912  0.90839184  0.38166409    -0.60900
N2515       N  0.97936821  0.92267169  0.36376848    -0.05900
N2516       N  0.96505184  0.90687842  0.37951729    -0.58800
N2517       N  0.51725388  0.92068756  0.31816456    -0.05600
N2518       N  0.52956815  0.89628193  0.30533747    -0.61300
C2519       C  0.99982239  0.88460595  0.29639060     0.95500
C2520       C  0.99377066  0.89617422  0.39035336     0.95300
N2521       N  0.57569311  0.51298699  0.36533128    -0.06800
N2522       N  0.59283537  0.52519401  0.38117982    -0.59400
N2523       N  0.57961146  0.98061139  0.32006862    -0.05000
N2524       N  0.60487055  0.96843140  0.30773820    -0.60600
N2525       N  0.57878745  0.51410088  0.31935237    -0.06900
N2526       N  0.60317769  0.52641065  0.30675728    -0.59600
N2527       N  0.57478056  0.97982412  0.36607918    -0.04600
N2528       N  0.59198982  0.96718650  0.38188957    -0.60700
Mn2529     Mn  0.54725194  0.95004116  0.34199881     1.18400
C2530       C  0.60290397  0.99698987  0.39175524     0.97600
C2531       C  0.61998110  0.99847501  0.30027147     0.98300
N2532       N  0.92248280  0.98325576  0.36345155    -0.06900
N2533       N  0.90751414  0.97105677  0.38001466    -0.63200
N2534       N  0.92212982  0.51939512  0.31767506    -0.05700
N2535       N  0.89880175  0.53270428  0.30473413    -0.63900
N2536       N  0.92307271  0.98403768  0.31726332    -0.06400
N2537       N  0.89890724  0.97260110  0.30432570    -0.63500
N2538       N  0.92143548  0.51931088  0.36384951    -0.05300
N2539       N  0.90629653  0.53234205  0.38030751    -0.64200
Mn2540     Mn  0.95111604  0.95237529  0.34034859     1.10700
C2541       C  0.89849481  0.00108110  0.39032256     0.98800
C2542       C  0.88522283  0.00302251  0.29637069     0.98900
N2543       N  0.51893055  0.57639218  0.31992884    -0.06400
N2544       N  0.53207377  0.60028244  0.30737773    -0.61800
N2545       N  0.98132291  0.57551309  0.36509929    -0.05700
N2546       N  0.96765215  0.59050428  0.38139191    -0.58500
N2547       N  0.51750643  0.57257609  0.36620226    -0.07000
N2548       N  0.52952151  0.58774987  0.38282398    -0.61300
N2549       N  0.98434761  0.57785662  0.31907369    -0.06000
N2550       N  0.97335757  0.60226576  0.30616193    -0.58500
Mn2551     Mn  0.54842541  0.54471930  0.34245662     1.20200
Mn2552     Mn  0.95161134  0.54879834  0.34111108     1.10100
Cl2553     Cl  0.00055405  0.99890872  0.34150035    -0.86500
C2554       C  0.00421090  0.61595508  0.29884716     0.95800
C2555       C  0.99668176  0.59841632  0.39261589     0.95600
N2556       N  0.50198279  0.69707271  0.50058160    -0.37100
N2557       N  0.49473153  0.75130528  0.46945865    -0.57700
N2558       N  0.49715632  0.80828737  0.49937162    -0.37100
N2559       N  0.50039041  0.75423135  0.53048734    -0.57700
C2560       C  0.49404798  0.67615211  0.48457543     0.26400
C2561       C  0.49553382  0.67776995  0.51736514     0.26400
C2562       C  0.48769009  0.82748168  0.48306624     0.26400
C2563       C  0.49069022  0.82905139  0.51566288     0.26400
C2564       C  0.50106757  0.72211341  0.45786138     0.35100
C2565       C  0.49823246  0.77996927  0.45729803     0.35100
C2566       C  0.50704604  0.72592207  0.54252020     0.35100
C2567       C  0.50550319  0.78383730  0.54182941     0.35100
C2568       C  0.48337814  0.64274993  0.49122103    -0.22400
C2569       C  0.48419201  0.64380758  0.51193275    -0.22400
C2570       C  0.47571285  0.86119283  0.48899796    -0.22400
C2571       C  0.47763721  0.86219679  0.50964061    -0.22400
C2572       C  0.50837116  0.73231561  0.43828280    -0.23500
C2573       C  0.50658555  0.76891886  0.43792900    -0.23500
C2574       C  0.51666138  0.73762157  0.56152606    -0.23500
C2575       C  0.51552480  0.77424378  0.56112130    -0.23500
C2576       C  0.49720417  0.68625109  0.46417226    -0.18800
C2577       C  0.50058294  0.68977986  0.53737998    -0.18800
C2578       C  0.49779483  0.81926222  0.53570224    -0.18800
C2579       C  0.49146628  0.81590088  0.46298276    -0.18800
H2580       H  0.47556841  0.62007566  0.48210179     0.14100
H2581       H  0.47721632  0.62204627  0.52185177     0.14100
H2582       H  0.46671530  0.88284518  0.47944588     0.14100
H2583       H  0.47037524  0.88476782  0.51911697     0.14100
H2584       H  0.51391323  0.71515515  0.42548497     0.12400
H2585       H  0.51056434  0.78547261  0.42482158     0.12400
H2586       H  0.52286481  0.72143775  0.57452384     0.12400
H2587       H  0.52056887  0.79171253  0.57378838     0.12400
H2588       H  0.51418215  0.72197722  0.49999931     0.25600
H2589       H  0.51082858  0.78395592  0.49923854     0.25600
N2590       N  0.69591559  0.49393648  0.49962441    -0.37100
N2591       N  0.75002688  0.50043514  0.53073772    -0.57700
N2592       N  0.80723639  0.49673647  0.50087078    -0.37100
N2593       N  0.75292520  0.49325655  0.46985787    -0.57700
C2594       C  0.67483022  0.50341611  0.51535490     0.26400
C2595       C  0.67662946  0.49939899  0.48274850     0.26400
C2596       C  0.82656766  0.50509824  0.51731831     0.26400
C2597       C  0.82770498  0.50397070  0.48458929     0.26400
C2598       C  0.72043724  0.49706323  0.54239872     0.35100
C2599       C  0.77853550  0.49710156  0.54312820     0.35100
C2600       C  0.72482834  0.48490813  0.45803626     0.35100
C2601       C  0.78275170  0.48762249  0.45867297     0.35100
C2602       C  0.64137641  0.51425390  0.50846105    -0.22400
C2603       C  0.64254817  0.51181895  0.48781082    -0.22400
C2604       C  0.86023644  0.51694709  0.51148745    -0.22400
C2605       C  0.86081557  0.51659776  0.49077021    -0.22400
C2606       C  0.73019713  0.49228575  0.56227426    -0.23500
C2607       C  0.76688040  0.49241769  0.56275245    -0.23500
C2608       C  0.73563819  0.97599927  0.43859551    -0.23500
C2609       C  0.77238193  0.97731006  0.43858142    -0.23500
C2610       C  0.68460514  0.50085302  0.53575313    -0.18800
C2611       C  0.68855768  0.49167043  0.46303986    -0.18800
C2612       C  0.81768955  0.49772534  0.46442589    -0.18800
C2613       C  0.81498061  0.50055585  0.53736601    -0.18800
H2614       H  0.61853661  0.52298407  0.51737871     0.14100
H2615       H  0.62074632  0.51821474  0.47769628     0.14100
H2616       H  0.88206453  0.52509759  0.52112113     0.14100
H2617       H  0.88322821  0.52421977  0.48136116     0.14100
H2618       H  0.71273498  0.48959013  0.57519914     0.12400
H2619       H  0.78299414  0.49003830  0.57617155     0.12400
H2620       H  0.71901098  0.96993460  0.42574588     0.12400
H2621       H  0.78963435  0.97251938  0.42571115     0.12400
H2622       H  0.72065139  0.48083892  0.50047570     0.25600
H2623       H  0.78291246  0.48326612  0.50090115     0.25600
C2624       C  0.49732428  0.74618893  0.25040018    -0.03000
C2625       C  0.97269512  0.82550260  0.28862749    -0.26900
C2626       C  0.99916929  0.85097494  0.28465000    -0.14900
C2627       C  0.52643041  0.84074976  0.27083705     0.35700
C2628       C  0.52480921  0.80886221  0.25955982    -0.26300
C2629       C  0.99896333  0.78381190  0.26388775    -0.15500
C2630       C  0.97226980  0.79238381  0.27854024     0.36800
N2631       N  0.94434575  0.76763553  0.28324125    -0.89800
H2632       H  0.95241772  0.83099233  0.29997510     0.17900
H2633       H  0.54457835  0.80592352  0.24781785     0.17900
N2634       N  0.55555759  0.86526862  0.26786902    -0.88800
H2635       H  0.91967391  0.78000935  0.28022941     0.35300
H2636       H  0.94530226  0.76225088  0.29863585     0.40400
H2637       H  0.54486578  0.88871966  0.26169806     0.40000
H2638       H  0.57412980  0.85505147  0.25745432     0.34900
C2639       C  0.00503055  0.64764733  0.26669525    -0.26900
C2640       C  0.00540106  0.64947217  0.28752636    -0.14900
C2641       C  0.50314793  0.68249175  0.29676267     0.35700
C2642       C  0.50302563  0.71365084  0.28490985    -0.26300
C2643       C  0.00191797  0.71324731  0.26456460    -0.15500
C2644       C  0.00325308  0.67878083  0.25516212     0.36800
N2645       N  0.00130226  0.67508409  0.23380129    -0.89800
H2646       H  0.00508440  0.62174613  0.25926673     0.10300
H2647       H  0.50470604  0.73908403  0.29254457     0.17900
N2648       N  0.50318910  0.68505043  0.31830998    -0.88800
H2649       H  0.97904696  0.65941657  0.23027144     0.35300
H2650       H  0.02438271  0.66143583  0.22887537     0.40400
H2651       H  0.47901457  0.67439385  0.32351149     0.40000
H2652       H  0.50335689  0.71186401  0.32290953     0.34900
C2653       C  0.96271147  0.63517188  0.41733556    -0.26900
C2654       C  0.99414846  0.61583750  0.41259935    -0.14900
C2655       C  0.52799399  0.61784646  0.42557493     0.35700
C2656       C  0.52602036  0.63869585  0.44324186    -0.26300
C2657       C  0.49496538  0.65846953  0.44810824    -0.15500
C2658       C  0.95965003  0.65493290  0.43512641     0.36800
N2659       N  0.92725528  0.67543938  0.43844849    -0.89800
H2660       H  0.94067603  0.63618308  0.40675594     0.17900
H2661       H  0.54931291  0.64074419  0.45288080     0.17900
N2662       N  0.56020714  0.59793693  0.42093670    -0.88800
H2663       H  0.92643191  0.69578987  0.42771713     0.35300
H2664       H  0.92695782  0.68772884  0.45255087     0.40400
H2665       H  0.55382616  0.57072064  0.42127161     0.40000
H2666       H  0.57953248  0.60187497  0.43206030     0.34900
C2667       C  0.51886111  0.86322652  0.44237350    -0.26900
C2668       C  0.48859396  0.84266697  0.44670785    -0.14900
C2669       C  0.95610081  0.83974407  0.43229705     0.35700
C2670       C  0.95923947  0.85965359  0.41463741    -0.26300
C2671       C  0.99088516  0.87815530  0.41003523    -0.15500
C2672       C  0.52071512  0.88351897  0.42472980     0.36800
N2673       N  0.55201662  0.90441121  0.42057543    -0.89800
H2674       H  0.54169452  0.86220788  0.45241692     0.17900
H2675       H  0.93713020  0.85955581  0.40409593     0.17900
N2676       N  0.92354895  0.82011288  0.43560247    -0.88800
H2677       H  0.57089115  0.90122772  0.43199327     0.35300
H2678       H  0.54411276  0.93139167  0.42080593     0.40400
H2679       H  0.92353420  0.80730425  0.44949531     0.40000
H2680       H  0.92221286  0.80012589  0.42458966     0.34900
C2681       C  0.62415070  0.96488954  0.42220978    -0.26900
C2682       C  0.62255161  0.99669971  0.41108603    -0.14900
C2683       C  0.64203995  0.52593540  0.41678565     0.35700
C2684       C  0.66167336  0.52446712  0.43465540    -0.26300
C2685       C  0.66257648  0.49329046  0.44626808    -0.15500
C2686       C  0.64272365  0.96290912  0.44042681     0.36800
N2687       N  0.64301791  0.92941376  0.45101245    -0.89800
H2688       H  0.61150123  0.94104968  0.41649101     0.17900
H2689       H  0.67739374  0.54743427  0.43916209     0.17900
N2690       N  0.64303527  0.55783227  0.40493162    -0.88800
H2691       H  0.61658618  0.92425619  0.45543925     0.35300
H2692       H  0.65795539  0.93086345  0.46419847     0.40400
H2693       H  0.66980880  0.56278273  0.40112625     0.40000
H2694       H  0.63384932  0.57918471  0.41381133     0.34900
C2695       C  0.86713201  0.97252105  0.44208704    -0.26900
C2696       C  0.84422428  0.00118604  0.44710773    -0.14900
C2697       C  0.83877935  0.53239441  0.43426940     0.35700
C2698       C  0.85744393  0.53204013  0.41601645    -0.26300
C2699       C  0.88237109  0.00145152  0.41058995    -0.15500
C2700       C  0.88648183  0.97237170  0.42393875     0.36800
N2701       N  0.90974657  0.94267035  0.41893366    -0.89800
H2702       H  0.86853952  0.94950195  0.45191957     0.17900
H2703       H  0.85232651  0.55325025  0.40531068     0.17900
N2704       N  0.81397870  0.56140988  0.43810402    -0.88800
H2705       H  0.90933435  0.92342315  0.43028800     0.35300
H2706       H  0.93602316  0.95230554  0.41830876     0.40400
H2707       H  0.80327419  0.56036316  0.45259828     0.40000
H2708       H  0.79261277  0.55882180  0.42807545     0.34900
C2709       C  0.62766709  0.96794318  0.58016846    -0.26900
C2710       C  0.61727697  0.50679732  0.58786067    -0.14900
C2711       C  0.63215445  0.53826406  0.57958995     0.35700
C2712       C  0.65160375  0.53599256  0.56150271    -0.26300
C2713       C  0.65631392  0.50322033  0.55146676    -0.15500
C2714       C  0.64765336  0.96415941  0.56244116     0.36800
N2715       N  0.65521334  0.92856305  0.55509672    -0.89800
H2716       H  0.61888082  0.94388748  0.58767314     0.17900
H2717       H  0.66480354  0.55955428  0.55568032     0.17900
N2718       N  0.62922257  0.57200285  0.58997020    -0.88800
H2719       H  0.63074499  0.91704509  0.55122114     0.35300
H2720       H  0.67057147  0.92887060  0.54193432     0.40400
H2721       H  0.60232332  0.58011917  0.58935524     0.40000
H2722       H  0.64378254  0.59173991  0.58248501     0.34900
C2723       C  0.85333449  0.53215902  0.56189852    -0.26900
C2724       C  0.84195680  0.49963273  0.55367951    -0.14900
C2725       C  0.85760922  0.96433242  0.56166364     0.35700
C2726       C  0.87439981  0.96632229  0.58038101    -0.26300
C2727       C  0.87760020  0.50098253  0.59096918    -0.15500
C2728       C  0.87175326  0.53321176  0.58025543     0.36800
N2729       N  0.88388453  0.56691907  0.58809059    -0.89800
H2730       H  0.84662515  0.55690987  0.55428112     0.17900
H2731       H  0.88170541  0.94156882  0.58781668     0.17900
N2732       N  0.85097551  0.92947787  0.55323720    -0.88800
H2733       H  0.87634749  0.58794862  0.57863867     0.35300
H2734       H  0.91198039  0.56619054  0.58795247     0.40400
H2735       H  0.83898362  0.93128227  0.53912913     0.40000
H2736       H  0.87590106  0.91701551  0.55087425     0.34900
C2737       C  0.52112746  0.61934637  0.57691406    -0.26900
C2738       C  0.98802598  0.62369941  0.59124119    -0.14900
C2739       C  0.96008447  0.64817385  0.58672466     0.35700
C2740       C  0.96111063  0.66694569  0.56851387    -0.26300
C2741       C  0.49651066  0.66418665  0.55435590    -0.15500
C2742       C  0.52354435  0.63895535  0.55895878     0.36800
N2743       N  0.55372268  0.63406312  0.54566515    -0.89800
H2744       H  0.54212358  0.60023974  0.58055631     0.17900
H2745       H  0.94043297  0.68669667  0.56528810     0.17900
N2746       N  0.93210463  0.65572459  0.60111113    -0.88800
H2747       H  0.57116338  0.61435125  0.55117933     0.35300
H2748       H  0.56811651  0.65798208  0.54551290     0.40400
H2749       H  0.91570224  0.63321937  0.60184560     0.40000
H2750       H  0.91564764  0.67671278  0.59615007     0.34900
C2751       C  0.96169076  0.87188327  0.58078238    -0.26900
C2752       C  0.99511331  0.88397925  0.58773491    -0.14900
C2753       C  0.53012632  0.88093920  0.57631400     0.35700
C2754       C  0.52828207  0.86192963  0.55813224    -0.26300
C2755       C  0.49597200  0.84704519  0.55162259    -0.15500
C2756       C  0.95871020  0.85260939  0.56280862     0.36800
N2757       N  0.92397797  0.83926191  0.55728611    -0.89800
H2758       H  0.93768272  0.87608394  0.58976975     0.17900
H2759       H  0.55265245  0.85651772  0.54964246     0.17900
N2760       N  0.56413343  0.89428093  0.58304386    -0.88800
H2761       H  0.91654252  0.82025793  0.56797819     0.35300
H2762       H  0.92462878  0.82623365  0.54340198     0.40400
H2763       H  0.58375380  0.89065464  0.57193444     0.40000
H2764       H  0.57231589  0.87841539  0.59510452     0.34900
C2765       C  0.56540703  0.74245403  0.24672162    -0.26900
C2766       C  0.53178087  0.74368108  0.23669484    -0.14900
C2767       C  0.53279651  0.74150109  0.21529376     0.35700
C2768       C  0.56579300  0.74416991  0.20509029    -0.26300
C2769       C  0.59829819  0.74662064  0.21543652    -0.15500
C2770       C  0.59824475  0.74450320  0.23652406     0.36800
N2771       N  0.63074893  0.74447631  0.24815479    -0.89800
H2772       H  0.56606855  0.74191395  0.26298133     0.17900
H2773       H  0.56607322  0.74342121  0.18881336     0.17900
N2774       N  0.50148292  0.73415585  0.20363700    -0.88800
H2775       H  0.63042749  0.76756140  0.25709528     0.35300
H2776       H  0.65363478  0.74592652  0.23910578     0.40400
H2777       H  0.50581677  0.71018037  0.19578684     0.40000
H2778       H  0.49842471  0.75458367  0.19306741     0.34900
C2779       C  0.90042105  0.72848883  0.23166564    -0.26900
C2780       C  0.89591998  0.75602798  0.21777224    -0.14900
C2781       C  0.92289473  0.78215117  0.21607927     0.35700
C2782       C  0.95463593  0.77866408  0.22740831    -0.26300
C2783       C  0.96109513  0.74919345  0.24025130    -0.15500
C2784       C  0.93145405  0.72555177  0.24347705     0.36800
N2785       N  0.93084967  0.69996901  0.25943882    -0.89800
H2786       H  0.87896598  0.70941684  0.23385910     0.17900
H2787       H  0.97545014  0.79847687  0.22554386     0.17900
N2788       N  0.91866868  0.81154797  0.20241253    -0.88800
H2789       H  0.92622369  0.67463109  0.25326234     0.35300
H2790       H  0.90925837  0.70619132  0.26895594     0.40400
H2791       H  0.91888641  0.80097121  0.18786693     0.40000
H2792       H  0.94059826  0.82882236  0.20331338     0.34900
C2793       C  0.72321982  0.61240632  0.05967841    -0.26900
C2794       C  0.75426006  0.59302392  0.05442472    -0.14900
C2795       C  0.78556161  0.59619424  0.06623983     0.35700
C2796       C  0.78445567  0.61735421  0.08358922    -0.26300
C2797       C  0.75276927  0.63501574  0.08962575    -0.15500
C2798       C  0.72210283  0.63358596  0.07714694     0.36800
N2799       N  0.68984236  0.65304284  0.08235233    -0.89800
H2800       H  0.69939281  0.60986058  0.05049285     0.17900
H2801       H  0.80829874  0.61877656  0.09283505     0.17900
N2802       N  0.81857716  0.57776101  0.06138015    -0.88800
H2803       H  0.66968426  0.64841942  0.07178848     0.35300
H2804       H  0.69566472  0.68036517  0.08163839     0.40400
H2805       H  0.81700484  0.56401370  0.04774450     0.40000
H2806       H  0.82313932  0.55864402  0.07252963     0.34900
C2807       C  0.72076858  0.89536978  0.06007494    -0.26900
C2808       C  0.75368931  0.90933949  0.05383660    -0.14900
C2809       C  0.78467125  0.90367365  0.06543418     0.35700
C2810       C  0.78181151  0.88523370  0.08364866    -0.26300
C2811       C  0.74846922  0.87266910  0.09057744    -0.15500
C2812       C  0.71760910  0.87747874  0.07847967     0.36800
N2813       N  0.68304122  0.86515820  0.08501224    -0.89800
H2814       H  0.69702060  0.90054783  0.05114244     0.17900
H2815       H  0.80563344  0.88165781  0.09273559     0.17900
N2816       N  0.81846083  0.91823776  0.05907442    -0.88800
H2817       H  0.66386693  0.86885572  0.07375804     0.35300
H2818       H  0.67488109  0.88148038  0.09700866     0.40400
H2819       H  0.82579500  0.90536229  0.04568514     0.40000
H2820       H  0.83857659  0.91230446  0.06948916     0.34900
C2821       C  0.71668469  0.62180341  0.92102469    -0.26900
C2822       C  0.74997845  0.63039040  0.91233273    -0.14900
C2823       C  0.78193346  0.62256625  0.92304157     0.35700
C2824       C  0.77973440  0.60435946  0.94139811    -0.26300
C2825       C  0.74654735  0.59400756  0.94931800    -0.15500
C2826       C  0.71453181  0.60414048  0.93945208     0.36800
N2827       N  0.67956711  0.59574834  0.94729783    -0.89800
H2828       H  0.69194696  0.62796938  0.91321887     0.17900
H2829       H  0.80415748  0.59637872  0.94905523     0.17900
N2830       N  0.81653185  0.63219746  0.91517732    -0.88800
H2831       H  0.66797930  0.57697137  0.93766282     0.35300
H2832       H  0.68115808  0.58402335  0.96147081     0.40400
H2833       H  0.82194220  0.61536291  0.90293779     0.40000
H2834       H  0.83671398  0.62703920  0.92568924     0.34900
C2835       C  0.72324058  0.88853951  0.94300705    -0.26900
C2836       C  0.75381924  0.90776299  0.94840020    -0.14900
C2837       C  0.78495182  0.90586405  0.93634008     0.35700
C2838       C  0.78416980  0.88613711  0.91838991    -0.26300
C2839       C  0.75275602  0.86873945  0.91222033    -0.15500
C2840       C  0.72241005  0.86875040  0.92506330     0.36800
N2841       N  0.69077626  0.84908787  0.91980717    -0.89800
H2842       H  0.69949623  0.89025658  0.95244066     0.17900
H2843       H  0.80773754  0.88562430  0.90879225     0.17900
N2844       N  0.81683528  0.92472266  0.94214634    -0.88800
H2845       H  0.67082350  0.85251253  0.93074448     0.35300
H2846       H  0.69769797  0.82186501  0.91983104     0.40400
H2847       H  0.81126225  0.95215929  0.94143538     0.40000
H2848       H  0.83763889  0.91976113  0.93187679     0.34900
C2849       C  0.99776964  0.71606724  0.71689584    -0.26900
C2850       C  0.99764541  0.71546193  0.73813231    -0.14900
C2851       C  0.49514012  0.68288938  0.74719864     0.35700
C2852       C  0.49339238  0.65123318  0.73587715    -0.26300
C2853       C  0.99567816  0.65104517  0.71517341    -0.15500
C2854       C  0.99780557  0.68429651  0.70543697     0.36800
N2855       N  0.00021345  0.68564448  0.68390646    -0.89800
H2856       H  0.99747018  0.74108906  0.70890468     0.17900
H2857       H  0.49071661  0.62580753  0.74351677     0.17900
N2858       N  0.49332256  0.68030906  0.76864003    -0.88800
H2859       H  0.00237574  0.71207913  0.67901971     0.35300
H2860       H  0.97611355  0.67583073  0.67810527     0.40400
H2861       H  0.51409652  0.66343901  0.77346599     0.40000
H2862       H  0.46889059  0.66847252  0.77247652     0.34900
C2863       C  0.53310627  0.82669411  0.71321660    -0.26900
C2864       C  0.00321803  0.85044516  0.71528004    -0.14900
C2865       C  0.97518419  0.84460861  0.72906965     0.35700
C2866       C  0.97531548  0.81351372  0.74083109    -0.26300
C2867       C  0.00148649  0.78591433  0.73845915    -0.15500
C2868       C  0.53263518  0.79486090  0.72452800     0.36800
N2869       N  0.56228981  0.77031066  0.72276274    -0.89800
H2870       H  0.55526285  0.83127938  0.70297382     0.17900
H2871       H  0.95464571  0.81180451  0.75214097     0.17900
N2872       N  0.94664683  0.87058409  0.73131450    -0.88800
H2873       H  0.58559382  0.78371552  0.72704967     0.35300
H2874       H  0.56508183  0.76294250  0.70766878     0.40400
H2875       H  0.95779870  0.89397760  0.73714986     0.40000
H2876       H  0.92748564  0.86200741  0.74173563     0.34900
C2877       C  0.56316664  0.72433258  0.76121744    -0.26900
C2878       C  0.53697735  0.75197734  0.76328510    -0.14900
C2879       C  0.54591608  0.78119655  0.77609113     0.35700
C2880       C  0.57805827  0.78067254  0.78715982    -0.26300
C2881       C  0.60222511  0.75167883  0.78591588    -0.15500
C2882       C  0.59464626  0.72348501  0.77250278     0.36800
N2883       N  0.61896678  0.69399317  0.76935548    -0.89800
H2884       H  0.56032320  0.70293671  0.75044064     0.17900
H2885       H  0.58378370  0.80300238  0.79705637     0.17900
N2886       N  0.52250216  0.81170884  0.77789563    -0.88800
H2887       H  0.62081404  0.67913152  0.78256387     0.35300
H2888       H  0.64425091  0.70398881  0.76559797     0.40400
H2889       H  0.53677715  0.83435315  0.77344505     0.40000
H2890       H  0.51552571  0.81493567  0.79301594     0.34900
C2891       C  0.89865539  0.74749570  0.76574823    -0.26900
C2892       C  0.89965574  0.74643404  0.78663305    -0.14900
C2893       C  0.93314313  0.74565698  0.79654994     0.35700
C2894       C  0.96491768  0.74694325  0.78520723    -0.26300
C2895       C  0.96454892  0.74949260  0.76402200    -0.15500
C2896       C  0.93034430  0.74853572  0.75439817     0.36800
N2897       N  0.92760997  0.74935108  0.73294438    -0.89800
H2898       H  0.87296922  0.74768494  0.75811653     0.17900
H2899       H  0.98986948  0.74476489  0.79331750     0.17900
N2900       N  0.93616309  0.74298679  0.81802959    -0.88800
H2901       H  0.91196283  0.77159060  0.72893530     0.35300
H2902       H  0.91419203  0.72632051  0.72826886     0.40400
H2903       H  0.91113607  0.74140910  0.82508909     0.40000
H2904       H  0.94809290  0.76646330  0.82322010     0.34900
C2905       C  0.81214470  0.51901299  0.74485584    -0.26900
C2906       C  0.78308336  0.49640791  0.73960136    -0.14900
C2907       C  0.79255108  0.97167153  0.72430900     0.35700
C2908       C  0.82574427  0.97174539  0.71411186    -0.26300
C2909       C  0.84986607  0.49508762  0.71812404    -0.15500
C2910       C  0.84452339  0.51911230  0.73419616     0.36800
N2911       N  0.87217546  0.54290380  0.74073721    -0.89800
H2912       H  0.81077895  0.53651740  0.75778169     0.17900
H2913       H  0.83083910  0.95155376  0.70269252     0.17900
N2914       N  0.76755724  0.94389054  0.71982143    -0.88800
H2915       H  0.87781500  0.56097121  0.72925689     0.35300
H2916       H  0.89529495  0.52779330  0.74378825     0.40400
H2917       H  0.77988233  0.91930698  0.72298478     0.40000
H2918       H  0.76208677  0.94452307  0.70443300     0.34900
C2919       C  0.71547686  0.00663529  0.71600335    -0.26900
C2920       C  0.71245234  0.50194011  0.73787422    -0.14900
C2921       C  0.67730006  0.50363378  0.74649407     0.35700
C2922       C  0.64675575  0.50527278  0.73426891    -0.26300
C2923       C  0.64974172  0.50627083  0.71342809    -0.15500
C2924       C  0.68464355  0.00740504  0.70384967     0.36800
N2925       N  0.68951268  0.00901803  0.68243327    -0.89800
H2926       H  0.74113085  0.00900671  0.70855871     0.17900
H2927       H  0.62034372  0.50511658  0.74119320     0.17900
N2928       N  0.67224239  0.50216156  0.76777203    -0.88800
H2929       H  0.70195258  0.03336525  0.67914738     0.35300
H2930       H  0.66512382  0.00912884  0.67483216     0.40400
H2931       H  0.65610394  0.48019158  0.77113589     0.40000
H2932       H  0.65842075  0.52535290  0.77227003     0.34900
C2933       C  0.74915110  0.56606140  0.75458934    -0.26900
C2934       C  0.74489876  0.53303763  0.76480231    -0.14900
C2935       C  0.73889256  0.53507737  0.78596861     0.35700
C2936       C  0.74068078  0.56830708  0.79597048    -0.26300
C2937       C  0.74818520  0.60004696  0.78574329    -0.15500
C2938       C  0.75257920  0.59888283  0.76471418     0.36800
N2939       N  0.76050200  0.63022349  0.75307112    -0.89800
H2940       H  0.75221407  0.56599035  0.73839895     0.17900
H2941       H  0.73599074  0.56930100  0.81203798     0.17900
N2942       N  0.72904539  0.50443570  0.79752397    -0.88800
H2943       H  0.78567156  0.62613610  0.74636630     0.35300
H2944       H  0.76277283  0.65301022  0.76208759     0.40400
H2945       H  0.70415088  0.50962459  0.80431023     0.40000
H2946       H  0.74793658  0.50121150  0.80897205     0.34900
C2947       C  0.77627272  0.95704173  0.77627106    -0.26900
C2948       C  0.74773975  0.96284672  0.76263783    -0.14900
C2949       C  0.72415451  0.93321854  0.75934228     0.35700
C2950       C  0.72648588  0.90262672  0.77148181    -0.26300
C2951       C  0.75339529  0.89854588  0.78584889    -0.15500
C2952       C  0.77918041  0.92577614  0.78795092     0.36800
N2953       N  0.80737128  0.92251533  0.80253266    -0.89800
H2954       H  0.79598714  0.97789295  0.77831426     0.17900
H2955       H  0.70756926  0.88110320  0.76911414     0.17900
N2956       N  0.69932284  0.93212694  0.74298025    -0.88800
H2957       H  0.82209493  0.94619224  0.80341172     0.35300
H2958       H  0.82527805  0.90282607  0.79733625     0.40400
H2959       H  0.67359700  0.92780046  0.74879875     0.40000
H2960       H  0.70595222  0.91022983  0.73380878     0.34900
C2961       C  0.58824892  0.72219555  0.06494079    -0.26900
C2962       C  0.58967329  0.75359036  0.05346152    -0.14900
C2963       C  0.61187115  0.78201946  0.05970043     0.35700
C2964       C  0.63032065  0.77909866  0.07788344    -0.26300
C2965       C  0.62740603  0.74856296  0.08999683    -0.15500
C2966       C  0.60675877  0.71935760  0.08322062     0.36800
N2967       N  0.60325634  0.68768237  0.09524040    -0.89800
H2968       H  0.57092486  0.70062981  0.06012798     0.17900
H2969       H  0.64655495  0.80137040  0.08278617     0.17900
N2970       N  0.61504652  0.81479104  0.04858577    -0.88800
H2971       H  0.58760572  0.66860808  0.08786437     0.35300
H2972       H  0.58921510  0.69487094  0.10828885     0.40400
H2973       H  0.60004250  0.81424622  0.03538766     0.40000
H2974       H  0.64191528  0.81716609  0.04421658     0.34900
C2975       C  0.88669648  0.78007299  0.05869208    -0.26900
C2976       C  0.91068263  0.75161090  0.05515017    -0.14900
C2977       C  0.91298110  0.72342327  0.06901322     0.35700
C2978       C  0.89232025  0.72470231  0.08659841    -0.26300
C2979       C  0.86967338  0.75408786  0.09083274    -0.15500
C2980       C  0.86627018  0.78172983  0.07638649     0.36800
N2981       N  0.84228455  0.81158039  0.07909478    -0.89800
H2982       H  0.88489699  0.80180335  0.04799526     0.17900
H2983       H  0.89501620  0.70309040  0.09731009     0.17900
N2984       N  0.93721040  0.69401629  0.06550687    -0.88800
H2985       H  0.85058535  0.82648490  0.09154447     0.35300
H2986       H  0.81644351  0.80193777  0.08168583     0.40400
H2987       H  0.92232375  0.67042607  0.06553696     0.40000
H2988       H  0.95530441  0.69289697  0.07747886     0.34900
C2989       C  0.60122722  0.72409652  0.94048574    -0.26900
C2990       C  0.59049347  0.75764402  0.94800160    -0.14900
C2991       C  0.60153037  0.78908652  0.93809278     0.35700
C2992       C  0.62088554  0.78608942  0.92015782    -0.26300
C2993       C  0.63061560  0.75255188  0.91209070    -0.15500
C2994       C  0.62188616  0.72116088  0.92284777     0.36800
N2995       N  0.63347495  0.68649737  0.91579758    -0.89800
H2996       H  0.59265355  0.70010747  0.94818714     0.17900
H2997       H  0.62763211  0.81040930  0.91225356     0.17900
N2998       N  0.59257816  0.82436939  0.94540634    -0.88800
H2999       H  0.62389713  0.66631072  0.92519528     0.35300
H3000       H  0.66146586  0.68568021  0.91693407     0.40400
H3001       H  0.57941490  0.82358502  0.95926165     0.40000
H3002       H  0.57483148  0.83608088  0.93517828     0.34900
C3003       C  0.88525259  0.77858157  0.94410004    -0.26900
C3004       C  0.90361534  0.74742922  0.94999044    -0.14900
C3005       C  0.89890954  0.71536309  0.93899610     0.35700
C3006       C  0.87858736  0.71602352  0.92137830    -0.26300
C3007       C  0.86294155  0.74792089  0.91435657    -0.15500
C3008       C  0.86446121  0.77909766  0.92650141     0.36800
N3009       N  0.84555551  0.81121954  0.92081626    -0.89800
H3010       H  0.88852154  0.80294751  0.95278605     0.17900
H3011       H  0.87649429  0.69159016  0.91264398     0.17900
N3012       N  0.91522118  0.68198616  0.94487712    -0.88800
H3013       H  0.84989961  0.83168442  0.93127845     0.35300
H3014       H  0.81806881  0.80570054  0.92133599     0.40400
H3015       H  0.92876525  0.68421376  0.95851728     0.40000
H3016       H  0.93434538  0.67507178  0.93397815     0.34900
C3017       C  0.78586502  0.00948102  0.28360964    -0.26900
C3018       C  0.78632446  0.00337039  0.26261150    -0.14900
C3019       C  0.81979821  0.50260993  0.25257021     0.35700
C3020       C  0.85114544  0.50237464  0.26419770    -0.26300
C3021       C  0.85099845  0.00399710  0.28541004    -0.15500
C3022       C  0.81745684  0.00919413  0.29508157     0.36800
N3023       N  0.81415549  0.01366682  0.31647953    -0.89800
H3024       H  0.76104611  0.01510952  0.29148832     0.17900
H3025       H  0.87703060  0.49979209  0.25678158     0.17900
N3026       N  0.82341276  0.49944141  0.23124393    -0.88800
H3027       H  0.80401222  0.03942306  0.31921185     0.35300
H3028       H  0.83894894  0.01196332  0.32368958     0.40400
H3029       H  0.83751065  0.47575230  0.22798728     0.40000
H3030       H  0.83874783  0.52090974  0.22613778     0.34900
C3031       C  0.65383195  0.52386508  0.27148978    -0.26900
C3032       C  0.65284965  0.99918385  0.28759080    -0.14900
C3033       C  0.68049184  0.97339130  0.28925676     0.35700
C3034       C  0.71118317  0.97593674  0.27694309    -0.26300
C3035       C  0.71592329  0.00403978  0.26294799    -0.15500
C3036       C  0.68389975  0.52646215  0.25883575     0.36800
N3037       N  0.68127998  0.55114940  0.24248014    -0.89800
H3038       H  0.63143229  0.54219913  0.26931694     0.17900
H3039       H  0.73215381  0.95586425  0.27848785     0.17900
N3040       N  0.67777536  0.94506194  0.30371451    -0.88800
H3041       H  0.67679644  0.57678531  0.24841251     0.35300
H3042       H  0.65884120  0.54454782  0.23385771     0.40400
H3043       H  0.67821741  0.95679311  0.31799206     0.40000
H3044       H  0.70018522  0.92802409  0.30285910     0.34900
C3045       C  0.75271435  0.57109542  0.24678082    -0.26900
C3046       C  0.75285529  0.53822821  0.23594937    -0.14900
C3047       C  0.75738966  0.54024727  0.21472752     0.35700
C3048       C  0.75660278  0.57374867  0.20520476    -0.26300
C3049       C  0.75290211  0.60563544  0.21613843    -0.15500
C3050       C  0.75169817  0.60442503  0.23724358     0.36800
N3051       N  0.74918589  0.63617404  0.24951570    -0.89800
H3052       H  0.75111401  0.57078561  0.26302577     0.17900
H3053       H  0.75930742  0.57486897  0.18900536     0.17900
N3054       N  0.76500796  0.50925663  0.20267023    -0.88800
H3055       H  0.72463855  0.63545669  0.25714927     0.35300
H3056       H  0.74887988  0.65948468  0.24089377     0.40400
H3057       H  0.79004795  0.51275191  0.19581956     0.40000
H3058       H  0.74600894  0.50807231  0.19118078     0.34900
C3059       C  0.71704073  0.92729384  0.21398572    -0.26900
C3060       C  0.74184405  0.89957991  0.21752630    -0.14900
C3061       C  0.76733565  0.90384801  0.23294758     0.35700
C3062       C  0.77008298  0.93694808  0.24268211    -0.26300
C3063       C  0.74783813  0.96671477  0.23787860    -0.15500
C3064       C  0.71915678  0.96018285  0.22429655     0.36800
N3065       N  0.69218548  0.98697015  0.22074242    -0.89800
H3066       H  0.69635720  0.92383716  0.20275035     0.17900
H3067       H  0.78927353  0.93822701  0.25476197     0.17900
N3068       N  0.79029437  0.87503633  0.23963156    -0.88800
H3069       H  0.66736336  0.97643771  0.22497405     0.35300
H3070       H  0.69109575  0.99213775  0.20535473     0.40400
H3071       H  0.78341952  0.85065948  0.23306550     0.40000
H3072       H  0.78550078  0.87151703  0.25497337     0.34900
loop_ 
_geom_bond_atom_site_label_1 
_geom_bond_atom_site_label_2 
_geom_bond_distance 
_geom_bond_site_symmetry_2 
_ccdc_geom_bond_type 
C1          C714   1.577       .  S
C1          C731   1.576       .  S
C1          C759   1.573       .  S
C1         C1510   1.564       .  S
N2            C7   1.350   1_556  A
N2            C6   1.349       .  A
N2           H34   1.039       .  S
N3           C11   1.350       .  A
N3         C1546   1.349   1_455  A
N4            C9   1.349       .  A
N4            C8   1.349   1_554  A
N4           H35   1.040       .  S
N5           C13   1.349       .  A
N5         C1548   1.348   1_455  A
C6           C14   1.387       .  A
C6           C22   1.409       .  A
C7           C23   1.410       .  A
C7           C15   1.387       .  A
C8           C16   1.387       .  A
C8           C25   1.407       .  A
C9           C24   1.408       .  A
C9           C17   1.386       .  A
C10        N1539   1.351       .  A
C10          C22   1.412       .  A
C10          C18   1.386       .  A
C11          C25   1.410       .  A
C11          C19   1.386       .  A
C12        N1541   1.348       .  A
C12          C20   1.387       .  A
C12          C23   1.408       .  A
C13          C21   1.387       .  A
C13          C24   1.408       .  A
C14          C15   1.378   1_556  A
C14          H26   1.082       .  S
C15          H27   1.082       .  S
C16          C17   1.378   1_556  A
C16          H28   1.082       .  S
C17          H29   1.082       .  S
C18        C1555   1.369       .  A
C18          H30   1.082       .  S
C19        C1554   1.370   1_455  A
C19          H31   1.082       .  S
C20        C1557   1.369       .  A
C20          H32   1.082       .  S
C21        C1556   1.368   1_455  A
C21          H33   1.082       .  S
C22         C700   1.479       .  S
C23         C672   1.476       .  S
C24         C658   1.476       .  S
C25         C686   1.477       .  S
C36         C602   1.579       .  S
C36         C616   1.565   1_565  S
C36         C630   1.570   1_565  S
C36        C1412   1.567       .  S
C37         C574   1.573       .  S
C37        C2082   1.569       .  S
C37        C2099   1.575       .  S
C37        C2127   1.568   1_455  S
N38          C43   1.350       .  A
N38          C42   1.351   1_556  A
N38          H70   1.039       .  S
N39          C47   1.352       .  A
N39         C814   1.351       .  A
N40          C45   1.352   1_554  A
N40          C44   1.352       .  A
N40          H71   1.038       .  S
N41          C49   1.350       .  A
N41         C816   1.350       .  A
C42          C50   1.386       .  A
C42          C58   1.411       .  A
C43          C59   1.412       .  A
C43          C51   1.387       .  A
C44          C52   1.386       .  A
C44          C61   1.415       .  A
C45          C60   1.415       .  A
C45          C53   1.387       .  A
C46         N807   1.352       .  A
C46          C58   1.412       .  A
C46          C54   1.386       .  A
C47          C61   1.414       .  A
C47          C55   1.387       .  A
C48         N809   1.349   1_545  A
C48          C56   1.388       .  A
C48          C59   1.412       .  A
C49          C57   1.387       .  A
C49          C60   1.412       .  A
C50          C51   1.378   1_554  A
C50          H62   1.082       .  S
C51          H63   1.082       .  S
C52          C53   1.379   1_554  A
C52          H64   1.082       .  S
C53          H65   1.082       .  S
C54         C823   1.368   1_545  A
C54          H66   1.082       .  S
C55         C822   1.367       .  A
C55          H67   1.082       .  S
C56         C825   1.368   1_545  A
C56          H68   1.082       .  S
C57         C824   1.365       .  A
C57          H69   1.082       .  S
C58         C490   1.484       .  S
C59         C521   1.479       .  S
C60         C532   1.482       .  S
C61         C504   1.484       .  S
N72          N73   1.320       .  A
N72          N78   1.313       .  A
N72        Mn101   2.198       .  S
N73          C80   1.354       .  A
N74          N76   1.317       .  A
N74          N75   1.320       .  A
N74         Mn90   2.204       .  S
N75          C81   1.352       .  A
N76          N77   1.322       .  A
N76        Mn101   2.217       .  S
N77          C81   1.356       .  A
N78          N79   1.320       .  A
N78         Mn90   2.190       .  S
N79          C80   1.352       .  A
C80         C535   1.482       .  S
C81         C647   1.486       .  S
N82          N88   1.317       .  A
N82          N83   1.321       .  A
N82        Mn112   2.208       .  S
N83          C91   1.353       .  A
N84          N85   1.318       .  A
N84          N86   1.314       .  A
N84         Mn90   2.190       .  S
N85          C92   1.351       .  A
N86          N87   1.321       .  A
N86        Mn112   2.198       .  S
N87          C92   1.353       .  A
N88          N89   1.320       .  A
N88         Mn90   2.202       .  S
N89          C91   1.351       .  A
Mn90       Cl114   2.543       .  S
C91         C588   1.470       .  S
C92         C703   1.479       .  S
N93          N94   1.322       .  A
N93          N99   1.316       .  A
N93        Mn101   2.212       .  S
N94         C102   1.356       .  A
N95          N97   1.313       .  A
N95          N96   1.319       .  A
N95        Mn113   2.186       .  S
N96         C103   1.351       .  A
N97          N98   1.319       .  A
N97        Mn101   2.198       .  S
N98         C103   1.354       .  A
N99         N100   1.319       .  A
N99        Mn113   2.202       .  S
N100        C102   1.353       .  A
Mn101      Cl114   2.549       .  S
C102        C577   1.486       .  S
C103        C689   1.482       .  S
N104        N105   1.319       .  A
N104        N110   1.313       .  A
N104       Mn112   2.193       .  S
N105        C115   1.353       .  A
N106        N107   1.319       .  A
N106        N108   1.317       .  A
N106       Mn113   2.196       .  S
N107        C116   1.350       .  A
N108        N109   1.322       .  A
N108       Mn112   2.217       .  S
N109        C116   1.355       .  A
N110        N111   1.319       .  A
N110       Mn113   2.190       .  S
N111        C115   1.353       .  A
Mn112      Cl114   2.551       .  S
Mn113      Cl114   2.541       .  S
C115        C518   1.483       .  S
C116        C633   1.471       .  S
N117        N118   1.322       .  A
N117        N123   1.316       .  A
N117       Mn146   2.208       .  S
N118        C125   1.354       .  A
N119        N121   1.313       .  A
N119        N120   1.317       .  A
N119       Mn135   2.179       .  S
N120        C126   1.349       .  A
N121        N122   1.324       .  A
N121       Mn146   2.216       .  S
N122        C126   1.358       .  A
N123        N124   1.320       .  A
N123       Mn135   2.209       .  S
N124        C125   1.355       .  A
C125        C756   1.484       .  S
C126        C507   1.487       .  S
N127        N133   1.313       .  A
N127        N128   1.319       .  A
N127       Mn157   2.191       .  S
N128        C136   1.353       .  A
N129        N130   1.320       .  A
N129        N131   1.317       .  A
N129       Mn135   2.197       .  S
N130        C137   1.352       .  A
N131        N132   1.319       .  A
N131       Mn157   2.207       .  S
N132        C137   1.353       .  A
N133        N134   1.319       .  A
N133       Mn135   2.190       .  S
N134        C136   1.351       .  A
Mn135      Cl159   2.545       .  S
C136        C675   1.479       .  S
C137        C476   1.477       .  S
N138        N139   1.317       .  A
N138        N144   1.314       .  A
N138       Mn146   2.188       .  S
N139        C147   1.352       .  A
N140        N142   1.318       .  A
N140        N141   1.321       .  A
N140       Mn158   2.208       .  S
N141        C148   1.353       .  A
N142        N143   1.321       .  A
N142       Mn146   2.214       .  S
N143        C148   1.353       .  A
N144        N145   1.320       .  A
N144       Mn158   2.193       .  S
N145        C147   1.353       .  A
Mn146      Cl159   2.546       .  S
C147        C661   1.477       .  S
C148        C465   1.473       .  S
N149        N150   1.321       .  A
N149        N155   1.316       .  A
N149       Mn157   2.202       .  S
N150        C160   1.352       .  A
N151        N152   1.320       .  A
N151        N153   1.314       .  A
N151       Mn158   2.197       .  S
N152        C161   1.353       .  A
N153        N154   1.322       .  A
N153       Mn157   2.203       .  S
N154        C161   1.355       .  A
N155        N156   1.321       .  A
N155       Mn158   2.213       .  S
N156        C160   1.354       .  A
Mn157      Cl159   2.545       .  S
Mn158      Cl159   2.547       .  S
C160        C745   1.472       .  S
C161        C493   1.487       .  S
N162        N163   1.322       .  A
N162       N1704   1.318       .  A
N162       Mn191   2.208       .  S
N163        C170   1.353       .  A
N164        N165   1.320       .  A
N164       N1702   1.314   1_455  A
N164       Mn180   2.197       .  S
N165       C1707   1.354   1_455  A
N166        N167   1.320       .  A
N166       N1700   1.314       .  A
N166       Mn191   2.194       .  S
N167        C171   1.352       .  A
N168        N169   1.321       .  A
N168       N1698   1.317   1_455  A
N168       Mn180   2.215       .  S
N169       C1706   1.353   1_455  A
C170       N1705   1.352       .  A
C170        C549   1.475       .  S
C171       N1701   1.354       .  A
C171        C434   1.480       .  S
N172        N173   1.317       .  A
N172        N946   1.313       .  A
N172       Mn202   2.183       .  S
N173        C949   1.351       .  A
N174        N175   1.320       .  A
N174        N944   1.319   1_545  A
N174       Mn180   2.207       .  S
N175        C182   1.351       .  A
N176        N177   1.321       .  A
N176        N942   1.318       .  A
N176       Mn202   2.210       .  S
N177        C950   1.353       .  A
N178        N179   1.320       .  A
N178        N940   1.313   1_545  A
N178       Mn180   2.198       .  S
N179        C181   1.354       .  A
Mn180     Cl1740   2.546   1_455  S
C181        N941   1.352   1_545  A
C181        C406   1.483       .  S
C182        N945   1.354   1_545  A
C182        C619   1.472       .  S
N183        N184   1.319       .  A
N183        N957   1.313   1_545  A
N183       Mn191   2.194       .  S
N184        C192   1.352       .  A
N185        N186   1.323       .  A
N185        N955   1.318       .  A
N185       Mn203   2.213       .  S
N186        C961   1.354       .  A
N187        N188   1.320       .  A
N187        N953   1.317   1_545  A
N187       Mn191   2.212       .  S
N188        C193   1.354   1_545  A
N189        N190   1.319       .  A
N189        N951   1.314       .  A
N189       Mn203   2.190       .  S
N190        C960   1.352       .  A
Mn191      Cl204   2.550       .  S
C192        N958   1.354   1_545  A
C192        C423   1.487       .  S
C193        N954   1.355       .  A
C193        C605   1.483       .  S
N194        N195   1.323       .  A
N194       N1736   1.317   1_455  A
N194       Mn202   2.207       .  S
N195       C1741   1.354       .  A
N196        N197   1.320       .  A
N196       N1734   1.313       .  A
N196       Mn203   2.197       .  S
N197        C206   1.354       .  A
N198        N199   1.318       .  A
N198       N1732   1.313   1_455  A
N198       Mn202   2.188       .  S
N199       C1742   1.352   1_455  A
N200        N201   1.319       .  A
N200       N1730   1.318       .  A
N200       Mn203   2.215       .  S
N201        C205   1.354       .  A
Mn202     Cl2508   2.549   1_455  S
Mn203      Cl972   2.548       .  S
Cl204     Mn1716   2.547       .  S
Cl204     Mn2506   2.551   1_545  S
Cl204      Mn971   2.547   1_545  S
C205       N1731   1.355       .  A
C205        C560   1.488       .  S
C206       N1735   1.354       .  A
C206        C448   1.489       .  S
N207        N208   1.321       .  A
N207       N1749   1.318       .  A
N207       Mn236   2.206       .  S
N208        C215   1.353       .  A
N209        N210   1.320       .  A
N209       N1747   1.314   1_455  A
N209       Mn225   2.199       .  S
N210       C1752   1.353   1_455  A
N211        N212   1.320       .  A
N211       N1745   1.314       .  A
N211       Mn236   2.196       .  S
N212        C216   1.352       .  A
N213        N214   1.322       .  A
N213       N1743   1.319   1_455  A
N213       Mn225   2.226       .  S
N214       C1751   1.356   1_455  A
C215       N1750   1.357       .  A
C215        C322   1.487       .  S
C216       N1746   1.355       .  A
C216        C367   1.485       .  S
N217        N218   1.319       .  A
N217        N991   1.314   1_545  A
N217       Mn247   2.195       .  S
N218        C994   1.352   1_545  A
N219        N220   1.322       .  A
N219        N989   1.318       .  A
N219       Mn225   2.216       .  S
N220        C227   1.355       .  A
N221        N222   1.323       .  A
N221        N987   1.318   1_545  A
N221       Mn247   2.219       .  S
N222        C995   1.355   1_545  A
N223        N224   1.321       .  A
N223        N985   1.313       .  A
N223       Mn225   2.207       .  S
N224        C226   1.356       .  A
Mn225     Cl1785   2.546   1_455  S
C226        N986   1.351       .  A
C226        C378   1.483       .  S
C227        N990   1.353       .  A
C227        C728   1.483       .  S
N228        N229   1.319       .  A
N228       N1002   1.314       .  A
N228       Mn236   2.186       .  S
N229        C237   1.350       .  A
N230        N231   1.321       .  A
N230       N1000   1.317   1_545  A
N230       Mn248   2.208       .  S
N231       C1006   1.353       .  A
N232        N233   1.322       .  A
N232        N998   1.318       .  A
N232       Mn236   2.219       .  S
N233        C238   1.354       .  A
N234        N235   1.320       .  A
N234        N996   1.313   1_545  A
N234       Mn248   2.196       .  S
N235       C1005   1.352       .  A
Mn236      Cl249   2.550       .  S
C237       N1003   1.353       .  A
C237        C395   1.477       .  S
C238        N999   1.354       .  A
C238        C717   1.481       .  S
N239        N240   1.320       .  A
N239       N1781   1.317   1_455  A
N239       Mn247   2.202       .  S
N240       C1786   1.351       .  A
N241        N242   1.319       .  A
N241       N1779   1.314       .  A
N241       Mn248   2.190       .  S
N242        C251   1.351       .  A
N243        N244   1.321       .  A
N243       N1777   1.314   1_455  A
N243       Mn247   2.210       .  S
N244       C1787   1.355   1_455  A
N245        N246   1.321       .  A
N245       N1775   1.317       .  A
N245       Mn248   2.210       .  S
N246        C250   1.353       .  A
Mn247     Cl2553   2.542   1_545  S
Mn248     Cl1017   2.551   1_545  S
Cl249     Mn1761   2.551       .  S
Cl249     Mn2551   2.547       .  S
Cl249     Mn1016   2.550       .  S
C250       N1776   1.350       .  A
C250        C336   1.468       .  S
C251       N1780   1.354       .  A
C251        C350   1.481       .  S
N252        C257   1.353       .  A
N252        C256   1.352       .  A
N252        H284   1.039   1_655  S
N253        C260   1.350   1_655  A
N253        C261   1.351       .  A
N254        C259   1.349       .  A
N254        C258   1.351       .  A
N254        H285   1.040   1_655  S
N255        C262   1.350   1_655  A
N255        C263   1.350   1_655  A
C256        C264   1.387       .  A
C256        C272   1.416       .  A
C257        C273   1.415       .  A
C257        C265   1.386       .  A
C258        C266   1.386       .  A
C258        C275   1.409       .  A
C259        C274   1.409       .  A
C259        C267   1.387       .  A
C260        C272   1.413   1_455  A
C260        C268   1.387       .  A
C261        C275   1.410       .  A
C261        C269   1.386   1_655  A
C262        C270   1.387       .  A
C262        C273   1.411   1_455  A
C263        C271   1.387       .  A
C263        C274   1.410   1_455  A
C264        C265   1.380       .  A
C264        H276   1.082       .  S
C265        H277   1.082       .  S
C266        C267   1.378       .  A
C266        H278   1.082       .  S
C267        H279   1.082       .  S
C268        C269   1.368       .  A
C268        H280   1.082       .  S
C269        H281   1.082       .  S
C270        C271   1.367       .  A
C270        H282   1.082       .  S
C271        H283   1.082       .  S
C272        C353   1.487       .  S
C273        C437   1.486       .  S
C274        C451   1.477       .  S
C275        C364   1.482       .  S
N286        C291   1.351       .  A
N286        C290   1.351       .  A
N286        H318   1.040       .  S
N287        C294   1.350       .  A
N287        C295   1.350       .  A
N288        C293   1.352   1_565  A
N288        C292   1.351   1_565  A
N288        H319   1.038       .  S
N289        C296   1.350       .  A
N289        C297   1.350       .  A
C290        C298   1.386   1_565  A
C290        C306   1.410       .  A
C291        C307   1.411       .  A
C291        C299   1.386   1_565  A
C292        C300   1.386       .  A
C292        C309   1.412   1_545  A
C293        C308   1.412   1_545  A
C293        C301   1.386       .  A
C294        C306   1.409       .  A
C294        C302   1.386       .  A
C295        C309   1.412       .  A
C295        C303   1.388       .  A
C296        C307   1.411       .  A
C296       C1072   1.386       .  A
C297        C308   1.412       .  A
C297       C1073   1.387       .  A
C298        C299   1.378       .  A
C298        H310   1.082       .  S
C299        H311   1.082       .  S
C300        C301   1.380       .  A
C300        H312   1.082       .  S
C301        H313   1.082       .  S
C302        C303   1.370       .  A
C302        H314   1.082       .  S
C303        H315   1.082       .  S
C304        C305   1.367       .  A
C304       C1064   1.387       .  A
C304        H316   1.082       .  S
C305       C1065   1.387       .  A
C305        H317   1.082       .  S
C306        C409   1.481       .  S
C307        C381   1.483       .  S
C308       C1160   1.484   1_565  S
C309        C420   1.482       .  S
C320        C462   1.574       .  S
C320       C1861   1.581       .  S
C320       C1875   1.564       .  S
C320       C2015   1.572   1_455  S
C321        C322   1.401       .  A
C321        C326   1.407       .  A
C321        H328   1.084       .  S
C322       C1859   1.404       .  A
C323        C324   1.407       .  A
C323       C1858   1.405   1_455  A
C323        N330   1.439       .  S
C324       C1861   1.422       .  A
C324        H329   1.077       .  S
C325       C1856   1.580       .  S
C325        C326   1.424       .  A
C325       C1860   1.423       .  A
C326        N327   1.430       .  S
N327        H331   1.045       .  S
N327        H332   1.046       .  S
N330        H333   1.045       .  S
N330        H334   1.046       .  S
C335        C336   1.392       .  A
C335        C340   1.400       .  A
C335        H342   1.084       .  S
C336       C1873   1.407       .  A
C337        C338   1.408       .  A
C337       C1872   1.406       .  A
C337        N344   1.438       .  S
C338       C1875   1.415       .  A
C338        H343   1.079       .  S
C339       C1856   1.561       .  S
C339        C340   1.428       .  A
C339       C1874   1.415       .  A
C340        N341   1.432       .  S
N341        H345   1.046       .  S
N341        H346   1.045       .  S
N344        H347   1.045   1_455  S
N344        H348   1.046       .  S
C349        C350   1.404       .  A
C349        C354   1.399       .  A
C349        H356   1.084       .  S
C350       C1887   1.414       .  A
C351        C352   1.405       .  A
C351       C1886   1.412   1_455  A
C351        N358   1.437       .  S
C352        C353   1.401   1_455  A
C352        H357   1.084       .  S
C353       C1890   1.418       .  A
C354       C1889   1.416       .  A
C354        N355   1.439       .  S
N355        H359   1.045       .  S
N355        H360   1.044       .  S
N358        H361   1.046       .  S
N358        H362   1.045       .  S
C363        C364   1.398   1_455  A
C363        C368   1.404       .  A
C363        H370   1.084       .  S
C364       C1901   1.415       .  A
C365        C366   1.401       .  A
C365       C1900   1.416       .  A
C365        N372   1.438       .  S
C366        C367   1.404       .  A
C366        H371   1.084       .  S
C367       C1904   1.413       .  A
C368       C1903   1.412   1_455  A
C368        N369   1.434       .  S
N369        H373   1.044       .  S
N369        H374   1.046       .  S
N372        H375   1.044       .  S
N372        H376   1.046       .  S
C377        C378   1.404       .  A
C377        C382   1.400       .  A
C377        H384   1.079       .  S
C378       C1147   1.413       .  A
C379        C380   1.400       .  A
C379       C1146   1.412   1_545  A
C379        N386   1.432       .  S
C380        C381   1.400   1_545  A
C380        H385   1.084       .  S
C381       C1150   1.414       .  A
C382       C1149   1.412       .  A
C382        N383   1.439       .  S
N383        H387   1.045       .  S
N383        H388   1.043       .  S
N386        H389   1.045       .  S
N386        H390   1.046       .  S
C391        C392   1.401       .  A
C391        C396   1.406       .  A
C391        H398   1.084       .  S
C392       C1161   1.415       .  A
C392       C1076   1.482       .  S
C393        C394   1.399       .  A
C393       C1160   1.414       .  A
C393        N400   1.438       .  S
C394       C1163   1.403       .  A
C394        H399   1.084       .  S
C395        C396   1.415       .  A
C395       C1162   1.401       .  A
C396        N397   1.438       .  S
N397        H401   1.046       .  S
N397        H402   1.046       .  S
N400        H403   1.044       .  S
N400        H404   1.045       .  S
C405        C410   1.397       .  A
C405       C1174   1.407       .  A
C405        H412   1.082       .  S
C406        C407   1.414       .  A
C406       C1173   1.406   1_545  A
C407        C408   1.404       .  A
C407        N414   1.437       .  S
C408        C409   1.401   1_545  A
C408        H413   1.084       .  S
C409       C1178   1.412       .  A
C410       C1177   1.412       .  A
C410        N411   1.439       .  S
N411        H415   1.046       .  S
N411        H416   1.042       .  S
N414        H417   1.045       .  S
N414        H418   1.046       .  S
C419        C420   1.400   1_545  A
C419        C424   1.405       .  A
C419        H426   1.084       .  S
C420       C1189   1.413       .  A
C421        C422   1.399       .  A
C421       C1188   1.415       .  A
C421        N428   1.439       .  S
C422       C1191   1.405       .  A
C422        H427   1.084       .  S
C423        C424   1.417       .  A
C423       C1190   1.405   1_545  A
C424        N425   1.435       .  S
N425        H429   1.046       .  S
N425        H430   1.045       .  S
N428        H431   1.044       .  S
N428        H432   1.046       .  S
C433        C438   1.406       .  A
C433       C1970   1.408   1_455  A
C433        H440   1.083       .  S
C434        C435   1.414       .  A
C434       C1969   1.405       .  A
C435        C436   1.404       .  A
C435        N442   1.438       .  S
C436       C1973   1.403       .  A
C436        H441   1.084       .  S
C437        C438   1.406   1_655  A
C437       C1972   1.402       .  A
C438        N439   1.438       .  S
N439        H443   1.045       .  S
N439        H444   1.046       .  S
N442        H445   1.042       .  S
N442        H446   1.046       .  S
C447        C448   1.407       .  A
C447        C452   1.401       .  A
C447        H454   1.084       .  S
C448       C1985   1.417       .  A
C449        C450   1.403       .  A
C449       C1984   1.416   1_455  A
C449        N456   1.437       .  S
C450        C451   1.399   1_455  A
C450        H455   1.084       .  S
C451       C1988   1.412       .  A
C452       C1987   1.413       .  A
C452        N453   1.438       .  S
N453        H457   1.045       .  S
N453        H458   1.043       .  S
N456        H459   1.045       .  S
N456        H460   1.045       .  S
C461        C462   1.421       .  A
C461        C466   1.400       .  A
C461        H468   1.084       .  S
C462        C463   1.429       .  A
C463        C464   1.407       .  A
C463        N470   1.431       .  S
C464        C465   1.398       .  A
C464        H469   1.084       .  S
C465        C466   1.407       .  A
C466        N467   1.439       .  S
N467        H471   1.046       .  S
N467        H472   1.043       .  S
N470        H473   1.046       .  S
N470        H474   1.046       .  S
C475        C476   1.392       .  A
C475        C480   1.399       .  A
C475        H482   1.085       .  S
C476        C477   1.409       .  A
C477        C478   1.408       .  A
C477        N484   1.437       .  S
C478        C479   1.416       .  A
C478        H483   1.083       .  S
C479       C1856   1.569       .  S
C479        C480   1.436       .  A
C480        N481   1.433       .  S
N481        H485   1.046       .  S
N481        H486   1.045       .  S
N484        H487   1.045       .  S
N484        H488   1.046       .  S
C489        C490   1.400       .  A
C489        C494   1.405       .  A
C489        H496   1.084       .  S
C490        C491   1.413       .  A
C491        C492   1.401       .  A
C491        N498   1.438       .  S
C492        C493   1.406       .  A
C492        H497   1.083       .  S
C493        C494   1.417       .  A
C494        N495   1.438       .  S
N495        H499   1.045       .  S
N495        H500   1.046       .  S
N498        H501   1.044       .  S
N498        H502   1.045       .  S
C503        C504   1.399       .  A
C503        C508   1.403       .  A
C503        H510   1.084       .  S
C504        C505   1.407       .  A
C505        C506   1.405       .  A
C505        N512   1.438       .  S
C506        C507   1.409       .  A
C506        H511   1.083       .  S
C507        C508   1.411       .  A
C508        N509   1.429       .  S
N509        H513   1.044       .  S
N509        H514   1.046       .  S
N512        H515   1.045       .  S
N512        H516   1.046       .  S
C517        C518   1.406       .  A
C517        C522   1.396       .  A
C517        H524   1.081       .  S
C518        C519   1.416       .  A
C519        C520   1.404       .  A
C519        N526   1.438       .  S
C520        C521   1.400       .  A
C520        H525   1.084       .  S
C521        C522   1.411       .  A
C522        N523   1.439       .  S
N523        H527   1.045       .  S
N523        H528   1.044       .  S
N526        H529   1.045       .  S
N526        H530   1.046       .  S
C531        C532   1.398       .  A
C531        C536   1.403       .  A
C531        H538   1.084       .  S
C532        C533   1.410       .  A
C533        C534   1.404       .  A
C533        N540   1.438       .  S
C534        C535   1.405       .  A
C534        H539   1.083       .  S
C535        C536   1.414       .  A
C536        N537   1.435       .  S
N537        H541   1.045       .  S
N537        H542   1.046       .  S
N540        H543   1.045       .  S
N540        H544   1.046       .  S
C545        C546   1.416       .  A
C545        C550   1.411       .  A
C545        H552   1.077       .  S
C546       C1573   1.572       .  S
C546       C2083   1.431       .  A
C547        C548   1.401       .  A
C547       C2082   1.430   1_655  A
C547        N554   1.433       .  S
C548       C2085   1.392       .  A
C548        H553   1.084       .  S
C549        C550   1.407       .  A
C549       C2084   1.392       .  A
C550        N551   1.438       .  S
N551        H555   1.044       .  S
N551        H556   1.047       .  S
N554        H557   1.045   1_655  S
N554        H558   1.046       .  S
C559        C564   1.410       .  A
C559       C2096   1.403       .  A
C559        H566   1.084       .  S
C560        C561   1.405       .  A
C560       C2095   1.404       .  A
C561        C562   1.402       .  A
C561        N568   1.439       .  S
C562        C563   1.420       .  A
C562        H567   1.077       .  S
C563       C1573   1.577       .  S
C563       C2100   1.425       .  A
C564       C2099   1.425       .  A
C564        N565   1.432       .  S
N565        H569   1.045       .  S
N565        H570   1.046       .  S
N568        H571   1.044       .  S
N568        H572   1.047       .  S
C573        C574   1.420       .  A
C573        C578   1.396       .  A
C573        H580   1.078       .  S
C574        C575   1.424       .  A
C575        C576   1.408       .  A
C575        N582   1.432       .  S
C576        C577   1.403       .  A
C576        H581   1.084       .  S
C577        C578   1.411       .  A
C578        N579   1.434       .  S
N579        H583   1.045       .  S
N579        H584   1.045       .  S
N582        H585   1.046       .  S
N582        H586   1.045       .  S
C587        C588   1.393       .  A
C587        C592   1.400       .  A
C587        H594   1.084       .  S
C588        C589   1.414       .  A
C589        C590   1.403       .  A
C589        N596   1.439       .  S
C590        C591   1.415       .  A
C590        H595   1.079       .  S
C591       C1573   1.567       .  S
C591        C592   1.428       .  A
C592        N593   1.433       .  S
N593        H597   1.046       .  S
N593        H598   1.045       .  S
N596        H599   1.043       .  S
N596        H600   1.045       .  S
C601        C602   1.423   1_545  A
C601        C606   1.396       .  A
C601        H608   1.079       .  S
C602       C1371   1.424       .  A
C603        C604   1.412       .  A
C603       C1370   1.425       .  A
C603        N610   1.432       .  S
C604       C1373   1.405       .  A
C604        H609   1.084       .  S
C605        C606   1.407   1_565  A
C605       C1372   1.402       .  A
C606        N607   1.434       .  S
N607        H611   1.044       .  S
N607        H612   1.046       .  S
N610        H613   1.045       .  S
N610        H614   1.046       .  S
C615        C620   1.405       .  A
C615       C1384   1.416       .  A
C615        H622   1.078       .  S
C616        C617   1.428       .  A
C616       C1383   1.414       .  A
C617        C618   1.401       .  A
C617        N624   1.431       .  S
C618        C619   1.392       .  A
C618        H623   1.084       .  S
C619       C1388   1.414       .  A
C620       C1387   1.414       .  A
C620        N621   1.439       .  S
N621        H625   1.045       .  S
N621        H626   1.044       .  S
N624        H627   1.045   1_545  S
N624        H628   1.046       .  S
C629        C630   1.420       .  A
C629        C634   1.399       .  A
C629        H636   1.084       .  S
C630        C631   1.428       .  A
C631        C632   1.406       .  A
C631        N638   1.432       .  S
C632        C633   1.399       .  A
C632        H637   1.084       .  S
C633        C634   1.407       .  A
C634        N635   1.439       .  S
N635        H639   1.045       .  S
N635        H640   1.045       .  S
N638        H641   1.046       .  S
N638        H642   1.046       .  S
C643        C644   1.415       .  A
C643        C648   1.408       .  A
C643        H650   1.083       .  S
C644        C804   1.571       .  S
C644        C645   1.435       .  A
C645        C646   1.405       .  A
C645        N652   1.432       .  S
C646        C647   1.396       .  A
C646        H651   1.085       .  S
C647        C648   1.411       .  A
C648        N649   1.437       .  S
N649        H653   1.046       .  S
N649        H654   1.045       .  S
N652        H655   1.046       .  S
N652        H656   1.045       .  S
C657        C658   1.401       .  A
C657        C662   1.403       .  A
C657        H664   1.084       .  S
C658        C659   1.411       .  A
C659        C660   1.396       .  A
C659        N666   1.439       .  S
C660        C661   1.404       .  A
C660        H665   1.081       .  S
C661        C662   1.413       .  A
C662        N663   1.437       .  S
N663        H667   1.046       .  S
N663        H668   1.045       .  S
N666        H669   1.044       .  S
N666        H670   1.045       .  S
C671        C672   1.398       .  A
C671        C676   1.399       .  A
C671        H678   1.084       .  S
C672        C673   1.404       .  A
C673        C674   1.397       .  A
C673        N680   1.432       .  S
C674        C675   1.404       .  A
C674        H679   1.084       .  S
C675        C676   1.421       .  A
C676        N677   1.431       .  S
N677        H681   1.046       .  S
N677        H682   1.044       .  S
N680        H683   1.045       .  S
N680        H684   1.046       .  S
C685        C686   1.400       .  A
C685        C690   1.404       .  A
C685        H692   1.084       .  S
C686        C687   1.411       .  A
C687        C688   1.395       .  A
C687        N694   1.439       .  S
C688        C689   1.403       .  A
C688        H693   1.080       .  S
C689        C690   1.416       .  A
C690        N691   1.436       .  S
N691        H695   1.046       .  S
N691        H696   1.044       .  S
N694        H697   1.044       .  S
N694        H698   1.045       .  S
C699        C700   1.399       .  A
C699        C704   1.403       .  A
C699        H706   1.084       .  S
C700        C701   1.413       .  A
C701        C702   1.399       .  A
C701        N708   1.438       .  S
C702        C703   1.404       .  A
C702        H707   1.084       .  S
C703        C704   1.415       .  A
C704        N705   1.438       .  S
N705        H709   1.046       .  S
N705        H710   1.046       .  S
N708        H711   1.044       .  S
N708        H712   1.045       .  S
C713        C714   1.417       .  A
C713        C718   1.408       .  A
C713        H720   1.080       .  S
C714       C1483   1.428       .  A
C715        C716   1.401       .  A
C715       C1482   1.430   1_565  A
C715        N722   1.431       .  S
C716       C1485   1.392   1_565  A
C716        H721   1.085       .  S
C717        C718   1.416       .  A
C717       C1484   1.395       .  A
C718        N719   1.439       .  S
N719        H723   1.045       .  S
N719        H724   1.043       .  S
N722        H725   1.046       .  S
N722        H726   1.046   1_565  S
C727        C732   1.408       .  A
C727       C1496   1.397   1_545  A
C727        H734   1.084       .  S
C728        C729   1.408       .  A
C728       C1495   1.395       .  A
C729        C730   1.408       .  A
C729        N736   1.437       .  S
C730        C731   1.417       .  A
C730        H735   1.083       .  S
C731       C1500   1.436       .  A
C732       C1499   1.436       .  A
C732        N733   1.433       .  S
N733        H737   1.046       .  S
N733        H738   1.046       .  S
N736        H739   1.045       .  S
N736        H740   1.046       .  S
C741        C742   1.420       .  A
C741        C746   1.400       .  A
C741        H748   1.084       .  S
C742        C769   1.563       .  S
C742        C743   1.428       .  A
C743        C744   1.405       .  A
C743        N750   1.432       .  S
C744        C745   1.398       .  A
C744        H749   1.084       .  S
C745        C746   1.408       .  A
C746        N747   1.439       .  S
N747        H751   1.045       .  S
N747        H752   1.044       .  S
N750        H753   1.046       .  S
N750        H754   1.045       .  S
C755        C756   1.402       .  A
C755        C760   1.408       .  A
C755        H762   1.084       .  S
C756        C757   1.411       .  A
C757        C758   1.401       .  A
C757        N764   1.441       .  S
C758        C759   1.419       .  A
C758        H763   1.079       .  S
C759        C760   1.425       .  A
C760        N761   1.431       .  S
N761        H765   1.046       .  S
N761        H766   1.045       .  S
N764        H767   1.043       .  S
N764        H768   1.045       .  S
C769       C1482   1.575       .  S
C769       C1499   1.581       .  S
C769       C1527   1.568   1_545  S
N770        C775   1.350       .  A
N770        C774   1.351   1_554  A
N770        H802   1.039       .  S
N771       C2314   1.353       .  A
N771        C779   1.353   1_655  A
N772        C777   1.352   1_556  A
N772        C776   1.350       .  A
N772        H803   1.038       .  S
N773       C2316   1.350   1_455  A
N773        C781   1.350       .  A
C774        C782   1.386       .  A
C774        C790   1.409       .  A
C775        C791   1.409       .  A
C775        C783   1.386       .  A
C776        C784   1.388       .  A
C776        C793   1.414       .  A
C777        C792   1.413       .  A
C777        C785   1.386       .  A
C778       N2307   1.351       .  A
C778        C790   1.410       .  A
C778        C786   1.385       .  A
C779        C793   1.417       .  A
C779        C787   1.387       .  A
C780       N2309   1.350       .  A
C780        C788   1.387       .  A
C780        C791   1.410       .  A
C781        C789   1.387       .  A
C781        C792   1.411       .  A
C782        C783   1.377   1_556  A
C782        H794   1.082       .  S
C783        H795   1.082       .  S
C784        C785   1.379   1_556  A
C784        H796   1.082       .  S
C785        H797   1.082       .  S
C786       C2323   1.368       .  A
C786        H798   1.082       .  S
C787       C2322   1.370   1_455  A
C787        H799   1.082       .  S
C788       C2325   1.370       .  A
C788        H800   1.082       .  S
C789       C2324   1.368   1_455  A
C789        H801   1.082       .  S
C790       C1468   1.482       .  S
C791       C1440   1.477       .  S
C792       C1426   1.483       .  S
C793       C1454   1.484       .  S
C804       C1370   1.582       .  S
C804       C1384   1.566       .  S
C804       C1398   1.575       .  S
C805       C2850   1.568       .  S
C805       C2867   1.577   1_655  S
C805       C1342   1.572   1_655  S
C805       C2895   1.566       .  S
N806        C811   1.352       .  A
N806        C810   1.351   1_556  A
N806        H838   1.039   1_556  S
N807        C815   1.351   1_545  A
N808        C813   1.352   1_554  A
N808        C812   1.350       .  A
N808        H839   1.039       .  S
N809        C817   1.349       .  A
C810        C818   1.386       .  A
C810        C826   1.411       .  A
C811        C827   1.412       .  A
C811        C819   1.387       .  A
C812        C820   1.387       .  A
C812        C829   1.412       .  A
C813        C828   1.412       .  A
C813        C821   1.387       .  A
C814        C826   1.413       .  A
C814        C822   1.387       .  A
C815        C829   1.413       .  A
C815        C823   1.387       .  A
C816        C824   1.388       .  A
C816        C827   1.412       .  A
C817        C825   1.387       .  A
C817        C828   1.411       .  A
C818        C819   1.377   1_554  A
C818        H830   1.082       .  S
C819        H831   1.082       .  S
C820        C821   1.379   1_554  A
C820        H832   1.082       .  S
C821        H833   1.082       .  S
C822        H834   1.082       .  S
C823        H835   1.082       .  S
C824        H836   1.082       .  S
C825        H837   1.083       .  S
C826       C1258   1.481       .  S
C827       C1289   1.481       .  S
C828       C1300   1.481       .  S
C829       C1272   1.480       .  S
N840        N841   1.319       .  A
N840        N846   1.313       .  A
N840       Mn869   2.192       .  S
N841        C848   1.352       .  A
N842        N844   1.317       .  A
N842        N843   1.320       .  A
N842       Mn858   2.198       .  S
N843        C849   1.352       .  A
N844        N845   1.321       .  A
N844       Mn869   2.214       .  S
N845        C849   1.355       .  A
N846        N847   1.319       .  A
N846       Mn858   2.187       .  S
N847        C848   1.352       .  A
C848       C1303   1.478       .  S
C849       C1415   1.481       .  S
N850        N856   1.317       .  A
N850        N851   1.320       .  A
N850       Mn880   2.203       .  S
N851        C859   1.352       .  A
N852        N853   1.318       .  A
N852        N854   1.314       .  A
N852       Mn858   2.185       .  S
N853        C860   1.350       .  A
N854        N855   1.323       .  A
N854       Mn880   2.215       .  S
N855        C860   1.356       .  A
N856        N857   1.319       .  A
N856       Mn858   2.198       .  S
N857        C859   1.351       .  A
Mn858      Cl882   2.545       .  S
C859       C1356   1.466       .  S
C860       C1471   1.484       .  S
N861        N862   1.322       .  A
N861        N867   1.316       .  A
N861       Mn869   2.206       .  S
N862        C870   1.355       .  A
N863        N865   1.314       .  A
N863        N864   1.319       .  A
N863       Mn881   2.191       .  S
N864        C871   1.352       .  A
N865        N866   1.320       .  A
N865       Mn869   2.197       .  S
N866        C871   1.354       .  A
N867        N868   1.319       .  A
N867       Mn881   2.209       .  S
N868        C870   1.353       .  A
Mn869      Cl882   2.549       .  S
C870       C1345   1.486       .  S
C871       C1457   1.484       .  S
N872        N873   1.317       .  A
N872        N878   1.313       .  A
N872       Mn880   2.184       .  S
N873        C883   1.351       .  A
N874        N875   1.319       .  A
N874        N876   1.318       .  A
N874       Mn881   2.201       .  S
N875        C884   1.350       .  A
N876        N877   1.324       .  A
N876       Mn880   2.228       .  S
N877        C884   1.357       .  A
N878        N879   1.320       .  A
N878       Mn881   2.198       .  S
N879        C883   1.355       .  A
Mn880      Cl882   2.551       .  S
Mn881      Cl882   2.540       .  S
C883       C1286   1.483       .  S
C884       C1401   1.477       .  S
N885        N886   1.322       .  A
N885        N891   1.317       .  A
N885       Mn914   2.214       .  S
N886        C893   1.356       .  A
N887        N889   1.313       .  A
N887        N888   1.318       .  A
N887       Mn903   2.187       .  S
N888        C894   1.351       .  A
N889        N890   1.321       .  A
N889       Mn914   2.202       .  S
N890        C894   1.355       .  A
N891        N892   1.317       .  A
N891       Mn903   2.195       .  S
N892        C893   1.352       .  A
C893       C1524   1.479       .  S
C894       C1275   1.485       .  S
N895        N901   1.313       .  A
N895        N896   1.321       .  A
N895       Mn925   2.199       .  S
N896        C904   1.355       .  A
N897        N898   1.322       .  A
N897        N899   1.316       .  A
N897       Mn903   2.207       .  S
N898        C905   1.354       .  A
N899        N900   1.320       .  A
N899       Mn925   2.209       .  S
N900        C905   1.354       .  A
N901        N902   1.318       .  A
N901       Mn903   2.184       .  S
N902        C904   1.350       .  A
Mn903      Cl927   2.545       .  S
C904       C1443   1.483       .  S
C905       C1244   1.485       .  S
N906        N907   1.320       .  A
N906        N912   1.314       .  A
N906       Mn914   2.201       .  S
N907        C915   1.354       .  A
N908        N910   1.318       .  A
N908        N909   1.320       .  A
N908       Mn926   2.205       .  S
N909        C916   1.352       .  A
N910        N911   1.321       .  A
N910       Mn914   2.213       .  S
N911        C916   1.353       .  A
N912        N913   1.320       .  A
N912       Mn926   2.195       .  S
N913        C915   1.352       .  A
Mn914      Cl927   2.548       .  S
C915       C1429   1.481       .  S
C916       C1233   1.471       .  S
N917        N918   1.321       .  A
N917        N923   1.317       .  A
N917       Mn925   2.205       .  S
N918        C928   1.352       .  A
N919        N920   1.321       .  A
N919        N921   1.313       .  A
N919       Mn926   2.196       .  S
N920        C929   1.354       .  A
N921        N922   1.318       .  A
N921       Mn925   2.188       .  S
N922        C929   1.351       .  A
N923        N924   1.322       .  A
N923       Mn926   2.216       .  S
N924        C928   1.354       .  A
Mn925      Cl927   2.544       .  S
Mn926      Cl927   2.549       .  S
C928       C1513   1.474       .  S
C929       C1261   1.479       .  S
N930        N931   1.322       .  A
N930       N2472   1.318       .  A
N930       Mn959   2.213       .  S
N931        C938   1.354       .  A
N932       N2470   1.314   1_455  A
N932        N933   1.320       .  A
N932       Mn948   2.196       .  S
N933       C2475   1.353   1_455  A
N934       N2468   1.314       .  A
N934        N935   1.323       .  A
N934       Mn959   2.214       .  S
N935        C939   1.355       .  A
N936       N2466   1.318   1_455  A
N936        N937   1.320       .  A
N936       Mn948   2.210       .  S
N937       C2474   1.352   1_455  A
C938       N2473   1.352       .  A
C938       C1317   1.473       .  S
C939       N2469   1.352       .  A
C939       C1202   1.486       .  S
N940        N941   1.318       .  A
N940       Mn970   2.187       .  S
N942        N943   1.321       .  A
N942       Mn948   2.211       .  S
N943        C950   1.352       .  A
N944        N945   1.321       .  A
N944       Mn970   2.217       .  S
N946        N947   1.321       .  A
N946       Mn948   2.199       .  S
N947        C949   1.355       .  A
Mn948     Cl2508   2.548   1_455  S
C949       C1174   1.483       .  S
C950       C1387   1.473       .  S
N951        N952   1.320       .  A
N951       Mn959   2.199       .  S
N952        C960   1.354       .  A
N953        N954   1.322       .  A
N953       Mn971   2.211       .  S
N955        N956   1.322       .  A
N955       Mn959   2.226       .  S
N956        C961   1.356       .  A
N957        N958   1.320       .  A
N957       Mn971   2.197       .  S
Mn959      Cl972   2.552       .  S
C960       C1191   1.484       .  S
C961       C1373   1.490       .  S
N962        N963   1.324       .  A
N962       N2504   1.317   1_455  A
N962       Mn970   2.216       .  S
N963       C2509   1.356       .  A
N964        N965   1.320       .  A
N964       N2502   1.314       .  A
N964       Mn971   2.195       .  S
N965        C974   1.354       .  A
N966       N2500   1.314   1_455  A
N966        N967   1.321       .  A
N966       Mn970   2.201       .  S
N967       C2510   1.354   1_455  A
N968       N2498   1.317       .  A
N968        N969   1.319       .  A
N968       Mn971   2.210       .  S
N969        C973   1.353       .  A
Mn970     Cl1740   2.553   1_465  S
Cl972     Mn2484   2.548       .  S
Cl972     Mn1738   2.553       .  S
C973       N2499   1.354       .  A
C973       C1328   1.484       .  S
C974       N2503   1.352       .  A
C974       C1216   1.484       .  S
N975        N976   1.321       .  A
N975       N2517   1.318       .  A
N975      Mn1004   2.203       .  S
N976        C983   1.352       .  A
N977       N2515   1.314   1_455  A
N977        N978   1.321       .  A
N977       Mn993   2.204       .  S
N978       C2520   1.355   1_455  A
N979       N2513   1.314       .  A
N979        N980   1.319       .  A
N979      Mn1004   2.188       .  S
N980        C984   1.351       .  A
N981       N2511   1.317   1_455  A
N981        N982   1.322       .  A
N981       Mn993   2.222       .  S
N982       C2519   1.356   1_455  A
C983       N2518   1.358       .  A
C983       C1090   1.489       .  S
C984       N2514   1.353       .  A
C984       C1135   1.479       .  S
N985        N986   1.319       .  A
N985      Mn1015   2.184       .  S
N987        N988   1.323       .  A
N987       Mn993   2.222       .  S
N988        C995   1.356       .  A
N989        N990   1.320       .  A
N989      Mn1015   2.212       .  S
N991        N992   1.322       .  A
N991       Mn993   2.205       .  S
N992        C994   1.356       .  A
Mn993     Cl2553   2.551       .  S
C994       C1146   1.485       .  S
C995       C1496   1.490       .  S
N996        N997   1.321       .  A
N996      Mn1004   2.194       .  S
N997       C1005   1.352   1_565  A
N998        N999   1.323       .  A
N998      Mn1016   2.216       .  S
N1000      N1001   1.321       .  A
N1000     Mn1004   2.212       .  S
N1001      C1006   1.353   1_565  A
N1002      N1003   1.320       .  A
N1002     Mn1016   2.196       .  S
Mn1004    Cl1017   2.547       .  S
C1005      C1163   1.481       .  S
C1006      C1485   1.474       .  S
N1007      N1008   1.320       .  A
N1007      N2549   1.317   1_455  A
N1007     Mn1015   2.198       .  S
N1008      C2554   1.350       .  A
N1009      N1010   1.320       .  A
N1009      N2547   1.314       .  A
N1009     Mn1016   2.204       .  S
N1010      C1019   1.354       .  A
N1011      N2545   1.314   1_455  A
N1011      N1012   1.323       .  A
N1011     Mn1015   2.203       .  S
N1012      C2555   1.355   1_455  A
N1013      N2543   1.317       .  A
N1013      N1014   1.321       .  A
N1013     Mn1016   2.209       .  S
N1014      C1018   1.352       .  A
Mn1015    Cl1785   2.548   1_455  S
Cl1017    Mn2529   2.550       .  S
Cl1017    Mn1783   2.544   1_565  S
C1018      N2544   1.352       .  A
C1018      C1104   1.471       .  S
C1019      N2548   1.355       .  A
C1019      C1118   1.489       .  S
N1020      C1025   1.353       .  A
N1020      C1024   1.353       .  A
N1020      H1052   1.039   1_655  S
N1021      C1028   1.351       .  A
N1021      C1029   1.351       .  A
N1022      C1027   1.351       .  A
N1022      C1026   1.351       .  A
N1022      H1053   1.040   1_655  S
N1023      C1030   1.352       .  A
N1023      C1031   1.353       .  A
C1024      C1032   1.386       .  A
C1024      C1040   1.416       .  A
C1025      C1041   1.417       .  A
C1025      C1033   1.388       .  A
C1026      C1034   1.387       .  A
C1026      C1043   1.412       .  A
C1027      C1042   1.412       .  A
C1027      C1035   1.387       .  A
C1028      C1040   1.413       .  A
C1028      C1036   1.387   1_655  A
C1029      C1043   1.412       .  A
C1029      C1037   1.386   1_655  A
C1030      C1038   1.387   1_655  A
C1030      C1041   1.416       .  A
C1031      C1039   1.387   1_655  A
C1031      C1042   1.414       .  A
C1032      C1033   1.380       .  A
C1032      H1044   1.082       .  S
C1033      H1045   1.082       .  S
C1034      C1035   1.379       .  A
C1034      H1046   1.082       .  S
C1035      H1047   1.082       .  S
C1036      C1037   1.366       .  A
C1036      H1048   1.082       .  S
C1037      H1049   1.082       .  S
C1038      C1039   1.367       .  A
C1038      H1050   1.082       .  S
C1039      H1051   1.082       .  S
C1040      C1121   1.487       .  S
C1041      C1205   1.490       .  S
C1042      C1219   1.484       .  S
C1043      C1132   1.483       .  S
N1054      C1059   1.352       .  A
N1054      C1058   1.350       .  A
N1054      H1086   1.035       .  S
N1055      C1062   1.352       .  A
N1055      C1063   1.352       .  A
N1056      C1061   1.353       .  A
N1056      C1060   1.352       .  A
N1056      H1087   1.032       .  S
N1057      C1064   1.350       .  A
N1057      C1065   1.349       .  A
C1058      C1066   1.387       .  A
C1058      C1074   1.413       .  A
C1059      C1075   1.413       .  A
C1059      C1067   1.386       .  A
C1060      C1068   1.387       .  A
C1060      C1077   1.414       .  A
C1061      C1076   1.413       .  A
C1061      C1069   1.386       .  A
C1062      C1074   1.414       .  A
C1062      C1070   1.387       .  A
C1063      C1077   1.415       .  A
C1063      C1071   1.388       .  A
C1064      C1075   1.411       .  A
C1065      C1076   1.410       .  A
C1066      C1067   1.377       .  A
C1066      H1078   1.082       .  S
C1067      H1079   1.082       .  S
C1068      C1069   1.378       .  A
C1068      H1080   1.082       .  S
C1069      H1081   1.082       .  S
C1070      C1071   1.365       .  A
C1070      H1082   1.082       .  S
C1071      H1083   1.082       .  S
C1072      C1073   1.370       .  A
C1072      H1084   1.082       .  S
C1073      H1085   1.082       .  S
C1074      C1177   1.480       .  S
C1075      C1149   1.482       .  S
C1077      C1188   1.485       .  S
C1088      C2629   1.577       .  S
C1088      C2643   1.561   1_655  S
C1088      C1230   1.571   1_655  S
C1088      C2783   1.572       .  S
C1089      C1090   1.403       .  A
C1089      C1094   1.409       .  A
C1089      H1096   1.083       .  S
C1090      C2627   1.404       .  A
C1091      C2626   1.400   1_455  A
C1091      C1092   1.403       .  A
C1091      N1098   1.439       .  S
C1092      C2629   1.425   1_455  A
C1092      H1097   1.078       .  S
C1093      C2624   1.584       .  S
C1093      C2628   1.425       .  A
C1093      C1094   1.424       .  A
C1094      N1095   1.431       .  S
N1095      H1099   1.045       .  S
N1095      H1100   1.046       .  S
N1098      H1101   1.045       .  S
N1098      H1102   1.046       .  S
C1103      C1104   1.392       .  A
C1103      C1108   1.401       .  A
C1103      H1110   1.084       .  S
C1104      C2641   1.406       .  A
C1105      C2640   1.406       .  A
C1105      C1106   1.408       .  A
C1105      N1112   1.438       .  S
C1106      C2643   1.415       .  A
C1106      H1111   1.078       .  S
C1107      C2624   1.565       .  S
C1107      C2642   1.416       .  A
C1107      C1108   1.429       .  A
C1108      N1109   1.432       .  S
N1109      H1113   1.046       .  S
N1109      H1114   1.046       .  S
N1112      H1115   1.046   1_455  S
N1112      H1116   1.046       .  S
C1117      C1118   1.405       .  A
C1117      C1122   1.400       .  A
C1117      H1124   1.084       .  S
C1118      C2655   1.416       .  A
C1119      C2654   1.413   1_455  A
C1119      C1120   1.408       .  A
C1119      N1126   1.437       .  S
C1120      C1121   1.402   1_455  A
C1120      H1125   1.084       .  S
C1121      C2658   1.416       .  A
C1122      C2657   1.416       .  A
C1122      N1123   1.438       .  S
N1123      H1127   1.045       .  S
N1123      H1128   1.044       .  S
N1126      H1129   1.046       .  S
N1126      H1130   1.045       .  S
C1131      C1132   1.399   1_455  A
C1131      C1136   1.404       .  A
C1131      H1138   1.084       .  S
C1132      C2669   1.415       .  A
C1133      C2668   1.414       .  A
C1133      C1134   1.399       .  A
C1133      N1140   1.438       .  S
C1134      C1135   1.403       .  A
C1134      H1139   1.084       .  S
C1135      C2672   1.412       .  A
C1136      C2671   1.412   1_455  A
C1136      N1137   1.435       .  S
N1137      H1141   1.044       .  S
N1137      H1142   1.047       .  S
N1140      H1143   1.044       .  S
N1140      H1144   1.045       .  S
C1145      C1146   1.405       .  A
C1145      C1150   1.403       .  A
C1145      H1152   1.080       .  S
C1147      C1148   1.402       .  A
C1147      N1154   1.432       .  S
C1148      C1149   1.402       .  A
C1148      H1153   1.084       .  S
C1150      N1151   1.439       .  S
N1151      H1155   1.046       .  S
N1151      H1156   1.043       .  S
N1154      H1157   1.045       .  S
N1154      H1158   1.045       .  S
C1159      C1160   1.402   1_565  A
C1159      C1164   1.407       .  A
C1159      H1166   1.084       .  S
C1161      C1162   1.396       .  A
C1161      N1168   1.438       .  S
C1162      H1167   1.084       .  S
C1163      C1164   1.415   1_545  A
C1164      N1165   1.438       .  S
N1165      H1169   1.045       .  S
N1165      H1170   1.046       .  S
N1168      H1171   1.044       .  S
N1168      H1172   1.045       .  S
C1173      C1178   1.399       .  A
C1173      H1180   1.081       .  S
C1174      C1175   1.415       .  A
C1175      C1176   1.405       .  A
C1175      N1182   1.437       .  S
C1176      C1177   1.401       .  A
C1176      H1181   1.084       .  S
C1178      N1179   1.439       .  S
N1179      H1183   1.045       .  S
N1179      H1184   1.043       .  S
N1182      H1185   1.044       .  S
N1182      H1186   1.046       .  S
C1187      C1188   1.401       .  A
C1187      C1192   1.405       .  A
C1187      H1194   1.084       .  S
C1189      C1190   1.399       .  A
C1189      N1196   1.439       .  S
C1190      H1195   1.084       .  S
C1191      C1192   1.416       .  A
C1192      N1193   1.438       .  S
N1193      H1197   1.046       .  S
N1193      H1198   1.046       .  S
N1196      H1199   1.044       .  S
N1196      H1200   1.046       .  S
C1201      C2738   1.406   1_455  A
C1201      C1206   1.406       .  A
C1201      H1208   1.082       .  S
C1202      C2737   1.407       .  A
C1202      C1203   1.413       .  A
C1203      C1204   1.406       .  A
C1203      N1210   1.437       .  S
C1204      C2741   1.404       .  A
C1204      H1209   1.084       .  S
C1205      C2740   1.404       .  A
C1205      C1206   1.408   1_655  A
C1206      N1207   1.438       .  S
N1207      H1211   1.046       .  S
N1207      H1212   1.045       .  S
N1210      H1213   1.045       .  S
N1210      H1214   1.045       .  S
C1215      C1216   1.406       .  A
C1215      C1220   1.399       .  A
C1215      H1222   1.084       .  S
C1216      C2753   1.417       .  A
C1217      C2752   1.417   1_455  A
C1217      C1218   1.406       .  A
C1217      N1224   1.436       .  S
C1218      C1219   1.400   1_455  A
C1218      H1223   1.084       .  S
C1219      C2756   1.413       .  A
C1220      C2755   1.413       .  A
C1220      N1221   1.438       .  S
N1221      H1225   1.045       .  S
N1221      H1226   1.043       .  S
N1224      H1227   1.046       .  S
N1224      H1228   1.045       .  S
C1229      C1230   1.422       .  A
C1229      C1234   1.398       .  A
C1229      H1236   1.084       .  S
C1230      C1231   1.426       .  A
C1231      C1232   1.406       .  A
C1231      N1238   1.431       .  S
C1232      C1233   1.399       .  A
C1232      H1237   1.084       .  S
C1233      C1234   1.407       .  A
C1234      N1235   1.439       .  S
N1235      H1239   1.046       .  S
N1235      H1240   1.043       .  S
N1238      H1241   1.046       .  S
N1238      H1242   1.046   1_455  S
C1243      C1244   1.394       .  A
C1243      C1248   1.402       .  A
C1243      H1250   1.085       .  S
C1244      C1245   1.410       .  A
C1245      C1246   1.411       .  A
C1245      N1252   1.437       .  S
C1246      C1247   1.417       .  A
C1246      H1251   1.083       .  S
C1247      C2624   1.573       .  S
C1247      C1248   1.436       .  A
C1248      N1249   1.432       .  S
N1249      H1253   1.046       .  S
N1249      H1254   1.046       .  S
N1252      H1255   1.045       .  S
N1252      H1256   1.047       .  S
C1257      C1258   1.401       .  A
C1257      C1262   1.405       .  A
C1257      H1264   1.084       .  S
C1258      C1259   1.412       .  A
C1259      C1260   1.397       .  A
C1259      N1266   1.438       .  S
C1260      C1261   1.405       .  A
C1260      H1265   1.084       .  S
C1261      C1262   1.414       .  A
C1262      N1263   1.438       .  S
N1263      H1267   1.045       .  S
N1263      H1268   1.046       .  S
N1266      H1269   1.044       .  S
N1266      H1270   1.045       .  S
C1271      C1272   1.399       .  A
C1271      C1276   1.404       .  A
C1271      H1278   1.084       .  S
C1272      C1273   1.405       .  A
C1273      C1274   1.403       .  A
C1273      N1280   1.438       .  S
C1274      C1275   1.408       .  A
C1274      H1279   1.083       .  S
C1275      C1276   1.416       .  A
C1276      N1277   1.437       .  S
N1277      H1281   1.046       .  S
N1277      H1282   1.045       .  S
N1280      H1283   1.045       .  S
N1280      H1284   1.046       .  S
C1285      C1286   1.405       .  A
C1285      C1290   1.398       .  A
C1285      H1292   1.083       .  S
C1286      C1287   1.417       .  A
C1287      C1288   1.403       .  A
C1287      N1294   1.438       .  S
C1288      C1289   1.399       .  A
C1288      H1293   1.084       .  S
C1289      C1290   1.413       .  A
C1290      N1291   1.438       .  S
N1291      H1295   1.045       .  S
N1291      H1296   1.044       .  S
N1294      H1297   1.046       .  S
N1294      H1298   1.046       .  S
C1299      C1300   1.399       .  A
C1299      C1304   1.404       .  A
C1299      H1306   1.084       .  S
C1300      C1301   1.409       .  A
C1301      C1302   1.402       .  A
C1301      N1308   1.438       .  S
C1302      C1303   1.403       .  A
C1302      H1307   1.083       .  S
C1303      C1304   1.415       .  A
C1304      N1305   1.437       .  S
N1305      H1309   1.045       .  S
N1305      H1310   1.046       .  S
N1308      H1311   1.045       .  S
N1308      H1312   1.046       .  S
C1313      C1314   1.415       .  A
C1313      C1318   1.408       .  A
C1313      H1320   1.077       .  S
C1314      C2341   1.570       .  S
C1314      C2851   1.431       .  A
C1315      C2850   1.431       .  A
C1315      C1316   1.400       .  A
C1315      N1322   1.433       .  S
C1316      C2853   1.391       .  A
C1316      H1321   1.084       .  S
C1317      C2852   1.392       .  A
C1317      C1318   1.406       .  A
C1318      N1319   1.438       .  S
N1319      H1323   1.045       .  S
N1319      H1324   1.046       .  S
N1322      H1325   1.045   1_655  S
N1322      H1326   1.046       .  S
C1327      C2864   1.403       .  A
C1327      C1332   1.411       .  A
C1327      H1334   1.083       .  S
C1328      C2863   1.403       .  A
C1328      C1329   1.404       .  A
C1329      C1330   1.400       .  A
C1329      N1336   1.439       .  S
C1330      C1331   1.420       .  A
C1330      H1335   1.077       .  S
C1331      C2341   1.574       .  S
C1331      C2868   1.425       .  A
C1332      C2867   1.425       .  A
C1332      N1333   1.433       .  S
N1333      H1337   1.045       .  S
N1333      H1338   1.046       .  S
N1336      H1339   1.046       .  S
N1336      H1340   1.045       .  S
C1341      C1342   1.420       .  A
C1341      C1346   1.396       .  A
C1341      H1348   1.078       .  S
C1342      C1343   1.424       .  A
C1343      C1344   1.409       .  A
C1343      N1350   1.433       .  S
C1344      C1345   1.403       .  A
C1344      H1349   1.084       .  S
C1345      C1346   1.409       .  A
C1346      N1347   1.434       .  S
N1347      H1351   1.044       .  S
N1347      H1352   1.045       .  S
N1350      H1353   1.045       .  S
N1350      H1354   1.046       .  S
C1355      C1356   1.392       .  A
C1355      C1360   1.399       .  A
C1355      H1362   1.084       .  S
C1356      C1357   1.413       .  A
C1357      C1358   1.402       .  A
C1357      N1364   1.439       .  S
C1358      C1359   1.415       .  A
C1358      H1363   1.078       .  S
C1359      C2341   1.565       .  S
C1359      C1360   1.428       .  A
C1360      N1361   1.434       .  S
N1361      H1365   1.046       .  S
N1361      H1366   1.045       .  S
N1364      H1367   1.044       .  S
N1364      H1368   1.045       .  S
C1369      C1370   1.422       .  A
C1369      C1374   1.398       .  A
C1369      H1376   1.079       .  S
C1371      C1372   1.408       .  A
C1371      N1378   1.431       .  S
C1372      H1377   1.083       .  S
C1373      C1374   1.408       .  A
C1374      N1375   1.433       .  S
N1375      H1379   1.044       .  S
N1375      H1380   1.046       .  S
N1378      H1381   1.045       .  S
N1378      H1382   1.046       .  S
C1383      C1388   1.406       .  A
C1383      H1390   1.078       .  S
C1384      C1385   1.427       .  A
C1385      C1386   1.402       .  A
C1385      N1392   1.431       .  S
C1386      C1387   1.393       .  A
C1386      H1391   1.084       .  S
C1388      N1389   1.439       .  S
N1389      H1393   1.046       .  S
N1389      H1394   1.042       .  S
N1392      H1395   1.045       .  S
N1392      H1396   1.046       .  S
C1397      C1398   1.420       .  A
C1397      C1402   1.401       .  A
C1397      H1404   1.084       .  S
C1398      C1399   1.428       .  A
C1399      C1400   1.408       .  A
C1399      N1406   1.431       .  S
C1400      C1401   1.400       .  A
C1400      H1405   1.084       .  S
C1401      C1402   1.409       .  A
C1402      N1403   1.439       .  S
N1403      H1407   1.046       .  S
N1403      H1408   1.043       .  S
N1406      H1409   1.046       .  S
N1406      H1410   1.046       .  S
C1411      C1412   1.416       .  A
C1411      C1416   1.406       .  A
C1411      H1418   1.083       .  S
C1412      C1413   1.434       .  A
C1413      C1414   1.401       .  A
C1413      N1420   1.432       .  S
C1414      C1415   1.394       .  A
C1414      H1419   1.085       .  S
C1415      C1416   1.410       .  A
C1416      N1417   1.438       .  S
N1417      H1421   1.046       .  S
N1417      H1422   1.045       .  S
N1420      H1423   1.046       .  S
N1420      H1424   1.046       .  S
C1425      C1426   1.403       .  A
C1425      C1430   1.404       .  A
C1425      H1432   1.084       .  S
C1426      C1427   1.413       .  A
C1427      C1428   1.400       .  A
C1427      N1434   1.438       .  S
C1428      C1429   1.405       .  A
C1428      H1433   1.083       .  S
C1429      C1430   1.413       .  A
C1430      N1431   1.438       .  S
N1431      H1435   1.046       .  S
N1431      H1436   1.046       .  S
N1434      H1437   1.044       .  S
N1434      H1438   1.045       .  S
C1439      C1440   1.397       .  A
C1439      C1444   1.397       .  A
C1439      H1446   1.084       .  S
C1440      C1441   1.403       .  A
C1441      C1442   1.400       .  A
C1441      N1448   1.432       .  S
C1442      C1443   1.406       .  A
C1442      H1447   1.083       .  S
C1443      C1444   1.422       .  A
C1444      N1445   1.432       .  S
N1445      H1449   1.045       .  S
N1445      H1450   1.044       .  S
N1448      H1451   1.045       .  S
N1448      H1452   1.046       .  S
C1453      C1454   1.401       .  A
C1453      C1458   1.405       .  A
C1453      H1460   1.084       .  S
C1454      C1455   1.414       .  A
C1455      C1456   1.398       .  A
C1455      N1462   1.438       .  S
C1456      C1457   1.404       .  A
C1456      H1461   1.083       .  S
C1457      C1458   1.416       .  A
C1458      N1459   1.437       .  S
N1459      H1463   1.046       .  S
N1459      H1464   1.045       .  S
N1462      H1465   1.044       .  S
N1462      H1466   1.045       .  S
C1467      C1468   1.400       .  A
C1467      C1472   1.405       .  A
C1467      H1474   1.084       .  S
C1468      C1469   1.414       .  A
C1469      C1470   1.400       .  A
C1469      N1476   1.438       .  S
C1470      C1471   1.403       .  A
C1470      H1475   1.083       .  S
C1471      C1472   1.417       .  A
C1472      N1473   1.438       .  S
N1473      H1477   1.046       .  S
N1473      H1478   1.046       .  S
N1476      H1479   1.044       .  S
N1476      H1480   1.045       .  S
C1481      C1482   1.415       .  A
C1481      C1486   1.406       .  A
C1481      H1488   1.079       .  S
C1483      C1484   1.404       .  A
C1483      N1490   1.431       .  S
C1484      H1489   1.084       .  S
C1485      C1486   1.414       .  A
C1486      N1487   1.439       .  S
N1487      H1491   1.045       .  S
N1487      H1492   1.043       .  S
N1490      H1493   1.046       .  S
N1490      H1494   1.045       .  S
C1495      C1500   1.403       .  A
C1495      H1502   1.085       .  S
C1496      C1497   1.409       .  A
C1497      C1498   1.410       .  A
C1497      N1504   1.437       .  S
C1498      C1499   1.418   1_565  A
C1498      H1503   1.083       .  S
C1500      N1501   1.433       .  S
N1501      H1505   1.046       .  S
N1501      H1506   1.046       .  S
N1504      H1507   1.045       .  S
N1504      H1508   1.046       .  S
C1509      C1510   1.421       .  A
C1509      C1514   1.401       .  A
C1509      H1516   1.083       .  S
C1510      C1511   1.426       .  A
C1511      C1512   1.407       .  A
C1511      N1518   1.431       .  S
C1512      C1513   1.399       .  A
C1512      H1517   1.084       .  S
C1513      C1514   1.408       .  A
C1514      N1515   1.439       .  S
N1515      H1519   1.045       .  S
N1515      H1520   1.044       .  S
N1518      H1521   1.046       .  S
N1518      H1522   1.045       .  S
C1523      C1524   1.401       .  A
C1523      C1528   1.406       .  A
C1523      H1530   1.084       .  S
C1524      C1525   1.412       .  A
C1525      C1526   1.398       .  A
C1525      N1532   1.441       .  S
C1526      C1527   1.419       .  A
C1526      H1531   1.079       .  S
C1527      C1528   1.424       .  A
C1528      N1529   1.431       .  S
N1529      H1533   1.045       .  S
N1529      H1534   1.046       .  S
N1532      H1535   1.042       .  S
N1532      H1536   1.045       .  S
C1537      C2250   1.577       .  S
C1537      C2267   1.577       .  S
C1537      C3046   1.561       .  S
C1537      C2295   1.573       .  S
N1538      C1543   1.350       .  A
N1538      C1542   1.350   1_554  A
N1538      H1570   1.039       .  S
N1539      C1547   1.351       .  A
N1540      C1545   1.351       .  A
N1540      C1544   1.349   1_554  A
N1540      H1571   1.041   1_554  S
N1541      C1549   1.349       .  A
C1542      C1550   1.387       .  A
C1542      C1558   1.410       .  A
C1543      C1559   1.410       .  A
C1543      C1551   1.387       .  A
C1544      C1552   1.387       .  A
C1544      C1561   1.409       .  A
C1545      C1560   1.412       .  A
C1545      C1553   1.387       .  A
C1546      C1558   1.410       .  A
C1546      C1554   1.386       .  A
C1547      C1561   1.413       .  A
C1547      C1555   1.387       .  A
C1548      C1556   1.387       .  A
C1548      C1559   1.409       .  A
C1549      C1557   1.387       .  A
C1549      C1560   1.409       .  A
C1550      C1551   1.380   1_556  A
C1550      H1562   1.082       .  S
C1551      H1563   1.082       .  S
C1552      C1553   1.378   1_556  A
C1552      H1564   1.082       .  S
C1553      H1565   1.082       .  S
C1554      H1566   1.082       .  S
C1555      H1567   1.082       .  S
C1556      H1568   1.082       .  S
C1557      H1569   1.082       .  S
C1558      C2236   1.480       .  S
C1559      C2208   1.476       .  S
C1560      C2194   1.481       .  S
C1561      C2222   1.479       .  S
C1572      C2138   1.580       .  S
C1572      C2152   1.567   1_565  S
C1572      C2166   1.574   1_565  S
C1572      C2948   1.572       .  S
C1573      C2110   1.571       .  S
N1574      C1579   1.351   1_554  A
N1574      C1578   1.350       .  A
N1574      H1606   1.037       .  S
N1575      C2350   1.351       .  A
N1575      C1583   1.351       .  A
N1576      C1581   1.352   1_554  A
N1576      C1580   1.352       .  A
N1576      H1607   1.037       .  S
N1577      C2352   1.351       .  A
N1577      C1585   1.351       .  A
C1578      C1586   1.386       .  A
C1578      C1594   1.410       .  A
C1579      C1595   1.411       .  A
C1579      C1587   1.387       .  A
C1580      C1588   1.386       .  A
C1580      C1597   1.413       .  A
C1581      C1596   1.414       .  A
C1581      C1589   1.387       .  A
C1582      N2343   1.351       .  A
C1582      C1594   1.411       .  A
C1582      C1590   1.386       .  A
C1583      C1597   1.413       .  A
C1583      C1591   1.388       .  A
C1584      N2345   1.350   1_545  A
C1584      C1592   1.388       .  A
C1584      C1595   1.412       .  A
C1585      C1593   1.386       .  A
C1585      C1596   1.413       .  A
C1586      C1587   1.378   1_554  A
C1586      H1598   1.082       .  S
C1587      H1599   1.082       .  S
C1588      C1589   1.379   1_554  A
C1588      H1600   1.082       .  S
C1589      H1601   1.082       .  S
C1590      C2359   1.367   1_545  A
C1590      H1602   1.082       .  S
C1591      C2358   1.368       .  A
C1591      H1603   1.082       .  S
C1592      C2361   1.366   1_545  A
C1592      H1604   1.082       .  S
C1593      C2360   1.367       .  A
C1593      H1605   1.082       .  S
C1594      C2026   1.481       .  S
C1595      C2057   1.479       .  S
C1596      C2068   1.484       .  S
C1597      C2040   1.482       .  S
N1608      N1609   1.320       .  A
N1608      N1614   1.313       .  A
N1608     Mn1637   2.195       .  S
N1609      C1616   1.353       .  A
N1610      N1612   1.317       .  A
N1610      N1611   1.320       .  A
N1610     Mn1626   2.206       .  S
N1611      C1617   1.353       .  A
N1612      N1613   1.321       .  A
N1612     Mn1637   2.212       .  S
N1613      C1617   1.355       .  A
N1614      N1615   1.320       .  A
N1614     Mn1626   2.195       .  S
N1615      C1616   1.353       .  A
C1616      C2071   1.480       .  S
C1617      C2183   1.483       .  S
N1618      N1624   1.317       .  A
N1618      N1619   1.320       .  A
N1618     Mn1648   2.202       .  S
N1619      C1627   1.352       .  A
N1620      N1621   1.317       .  A
N1620      N1622   1.315       .  A
N1620     Mn1626   2.187       .  S
N1621      C1628   1.350       .  A
N1622      N1623   1.322       .  A
N1622     Mn1648   2.208       .  S
N1623      C1628   1.355       .  A
N1624      N1625   1.320       .  A
N1624     Mn1626   2.205       .  S
N1625      C1627   1.352       .  A
Mn1626    Cl1650   2.543       .  S
C1627      C2124   1.469       .  S
C1628      C2239   1.480       .  S
N1629      N1630   1.323       .  A
N1629      N1635   1.316       .  A
N1629     Mn1637   2.208       .  S
N1630      C1638   1.356       .  A
N1631      N1633   1.313       .  A
N1631      N1632   1.318       .  A
N1631     Mn1649   2.188       .  S
N1632      C1639   1.351       .  A
N1633      N1634   1.319       .  A
N1633     Mn1637   2.193       .  S
N1634      C1639   1.354       .  A
N1635      N1636   1.318       .  A
N1635     Mn1649   2.201       .  S
N1636      C1638   1.352       .  A
Mn1637    Cl1650   2.550       .  S
C1638      C2113   1.485       .  S
C1639      C2225   1.482       .  S
N1640      N1641   1.318       .  A
N1640      N1646   1.312       .  A
N1640     Mn1648   2.188       .  S
N1641      C1651   1.352       .  A
N1642      N1643   1.320       .  A
N1642      N1644   1.317       .  A
N1642     Mn1649   2.200       .  S
N1643      C1652   1.351       .  A
N1644      N1645   1.323       .  A
N1644     Mn1648   2.222       .  S
N1645      C1652   1.356       .  A
N1646      N1647   1.319       .  A
N1646     Mn1649   2.193       .  S
N1647      C1651   1.354       .  A
Mn1648    Cl1650   2.551       .  S
Mn1649    Cl1650   2.540       .  S
C1651      C2054   1.482       .  S
C1652      C2169   1.475       .  S
N1653      N1654   1.324       .  A
N1653      N1659   1.318       .  A
N1653     Mn1682   2.217       .  S
N1654      C1661   1.356       .  A
N1655      N1657   1.314       .  A
N1655      N1656   1.317       .  A
N1655     Mn1671   2.186       .  S
N1656      C1662   1.350       .  A
N1657      N1658   1.323       .  A
N1657     Mn1682   2.211       .  S
N1658      C1662   1.357       .  A
N1659      N1660   1.319       .  A
N1659     Mn1671   2.205       .  S
N1660      C1661   1.353       .  A
C1661      C2292   1.485       .  S
C1662      C2043   1.484       .  S
N1663      N1669   1.313       .  A
N1663      N1664   1.318       .  A
N1663     Mn1693   2.183       .  S
N1664      C1672   1.352       .  A
N1665      N1666   1.323       .  A
N1665      N1667   1.317       .  A
N1665     Mn1671   2.210       .  S
N1666      C1673   1.354       .  A
N1667      N1668   1.320       .  A
N1667     Mn1693   2.209       .  S
N1668      C1673   1.354       .  A
N1669      N1670   1.319       .  A
N1669     Mn1671   2.191       .  S
N1670      C1672   1.352       .  A
Mn1671    Cl1695   2.546       .  S
C1672      C2211   1.478       .  S
C1673      C2012   1.485       .  S
N1674      N1675   1.317       .  A
N1674      N1680   1.314       .  A
N1674     Mn1682   2.193       .  S
N1675      C1683   1.352       .  A
N1676      N1678   1.318       .  A
N1676      N1677   1.320       .  A
N1676     Mn1694   2.202       .  S
N1677      C1684   1.351       .  A
N1678      N1679   1.322       .  A
N1678     Mn1682   2.220       .  S
N1679      C1684   1.354       .  A
N1680      N1681   1.323       .  A
N1680     Mn1694   2.203       .  S
N1681      C1683   1.355       .  A
Mn1682    Cl1695   2.549       .  S
C1683      C2197   1.484       .  S
C1684      C2001   1.472       .  S
N1685      N1686   1.320       .  A
N1685      N1691   1.316       .  A
N1685     Mn1693   2.197       .  S
N1686      C1696   1.351       .  A
N1687      N1688   1.319       .  A
N1687      N1689   1.313       .  A
N1687     Mn1694   2.190       .  S
N1688      C1697   1.352       .  A
N1689      N1690   1.321       .  A
N1689     Mn1693   2.201       .  S
N1690      C1697   1.354       .  A
N1691      N1692   1.321       .  A
N1691     Mn1694   2.216       .  S
N1692      C1696   1.354       .  A
Mn1693    Cl1695   2.545       .  S
Mn1694    Cl1695   2.550       .  S
C1696      C2281   1.471       .  S
C1697      C2029   1.483       .  S
N1698      N1699   1.321       .  A
N1698     Mn1727   2.202       .  S
N1699      C1706   1.352       .  A
N1700      N1701   1.319       .  A
N1700     Mn1716   2.198       .  S
N1702      N1703   1.321       .  A
N1702     Mn1727   2.206       .  S
N1703      C1707   1.354       .  A
N1704      N1705   1.321       .  A
N1704     Mn1716   2.216       .  S
C1706      C2085   1.473       .  S
C1707      C1970   1.485       .  S
N1708      N2482   1.313       .  A
N1708      N1709   1.320       .  A
N1708     Mn1738   2.196       .  S
N1709      C2485   1.354       .  A
N1710      N1711   1.321       .  A
N1710      N2480   1.319   1_545  A
N1710     Mn1716   2.213       .  S
N1711      C1718   1.352       .  A
N1712      N2478   1.318       .  A
N1712      N1713   1.321       .  A
N1712     Mn1738   2.214       .  S
N1713      C2486   1.353       .  A
N1714      N2476   1.313   1_545  A
N1714      N1715   1.323       .  A
N1714     Mn1716   2.212       .  S
N1715      C1717   1.357       .  A
C1717      N2477   1.351   1_545  A
C1717      C1942   1.489       .  S
C1718      N2481   1.354   1_545  A
C1718      C2155   1.476       .  S
N1719      N1720   1.319       .  A
N1719      N2493   1.313   1_545  A
N1719     Mn1727   2.188       .  S
N1720      C1728   1.352   1_545  A
N1721      N2491   1.317       .  A
N1721      N1722   1.321       .  A
N1721     Mn1739   2.204       .  S
N1722      C2497   1.353       .  A
N1723      N2489   1.317   1_545  A
N1723      N1724   1.321       .  A
N1723     Mn1727   2.216       .  S
N1724      C1729   1.355   1_545  A
N1725      N2487   1.313       .  A
N1725      N1726   1.320       .  A
N1725     Mn1739   2.198       .  S
N1726      C2496   1.355       .  A
Mn1727    Cl1740   2.551       .  S
C1728      N2494   1.354       .  A
C1728      C1959   1.486       .  S
C1729      N2490   1.354       .  A
C1729      C2141   1.484       .  S
N1730      N1731   1.324       .  A
N1730     Mn1738   2.213       .  S
N1732      N1733   1.318       .  A
N1732     Mn1739   2.187       .  S
N1733      C1742   1.353       .  A
N1734      N1735   1.320       .  A
N1734     Mn1738   2.198       .  S
N1736      N1737   1.319       .  A
N1736     Mn1739   2.212       .  S
N1737      C1741   1.354   1_655  A
Mn1739    Cl2508   2.547       .  S
Cl1740    Mn2507   2.546   1_545  S
C1741      C2096   1.486       .  S
C1742      C1984   1.479       .  S
N1743      N1744   1.323       .  A
N1743     Mn1772   2.212       .  S
N1744      C1751   1.354       .  A
N1745      N1746   1.322       .  A
N1745     Mn1761   2.206       .  S
N1747      N1748   1.320       .  A
N1747     Mn1772   2.194       .  S
N1748      C1752   1.352       .  A
N1749      N1750   1.324       .  A
N1749     Mn1761   2.231       .  S
C1751      C1858   1.488       .  S
C1752      C1903   1.480       .  S
N1753      N2527   1.313   1_545  A
N1753      N1754   1.319       .  A
N1753     Mn1783   2.185       .  S
N1754      C2530   1.351   1_545  A
N1755      N1756   1.323       .  A
N1755      N2525   1.319       .  A
N1755     Mn1761   2.216       .  S
N1756      C1763   1.354       .  A
N1757      N2523   1.319   1_545  A
N1757      N1758   1.321       .  A
N1757     Mn1783   2.213       .  S
N1758      C2531   1.353   1_545  A
N1759      N2521   1.314       .  A
N1759      N1760   1.322       .  A
N1759     Mn1761   2.211       .  S
N1760      C1762   1.357       .  A
C1762      N2522   1.349       .  A
C1762      C1914   1.482       .  S
C1763      N2526   1.354       .  A
C1763      C2264   1.484       .  S
N1764      N1765   1.320       .  A
N1764      N2538   1.313       .  A
N1764     Mn1772   2.196       .  S
N1765      C1773   1.352       .  A
N1766      N2536   1.316   1_545  A
N1766      N1767   1.321       .  A
N1766     Mn1784   2.201       .  S
N1767      C2542   1.352       .  A
N1768      N2534   1.318       .  A
N1768      N1769   1.323       .  A
N1768     Mn1772   2.223       .  S
N1769      C1774   1.355       .  A
N1770      N2532   1.314   1_545  A
N1770      N1771   1.319       .  A
N1770     Mn1784   2.193       .  S
N1771      C2541   1.352       .  A
Mn1772    Cl1785   2.551       .  S
C1773      N2539   1.351       .  A
C1773      C1931   1.476       .  S
C1774      N2535   1.352       .  A
C1774      C2253   1.478       .  S
N1775      N1776   1.320       .  A
N1775     Mn1783   2.198       .  S
N1777      N1778   1.319       .  A
N1777     Mn1784   2.184       .  S
N1778      C1787   1.350       .  A
N1779      N1780   1.321       .  A
N1779     Mn1783   2.204       .  S
N1781      N1782   1.320       .  A
N1781     Mn1784   2.208       .  S
N1782      C1786   1.353   1_655  A
Mn1784    Cl2553   2.551   1_645  S
Cl1785    Mn2552   2.547       .  S
C1786      C1872   1.469       .  S
C1787      C1886   1.480       .  S
N1788      C1793   1.352       .  A
N1788      C1792   1.353       .  A
N1788      H1820   1.040       .  S
N1789      C1796   1.350       .  A
N1789      C1797   1.351       .  A
N1790      C1795   1.352       .  A
N1790      C1794   1.353       .  A
N1790      H1821   1.039       .  S
N1791      C1798   1.352       .  A
N1791      C1799   1.352       .  A
C1792      C1800   1.387       .  A
C1792      C1808   1.415       .  A
C1793      C1809   1.416       .  A
C1793      C1801   1.387       .  A
C1794      C1802   1.386       .  A
C1794      C1811   1.415       .  A
C1795      C1810   1.414       .  A
C1795      C1803   1.387       .  A
C1796      C1808   1.413       .  A
C1796      C1804   1.387       .  A
C1797      C1811   1.412       .  A
C1797      C1805   1.386       .  A
C1798      C1806   1.387       .  A
C1798      C1809   1.416       .  A
C1799      C1807   1.387       .  A
C1799      C1810   1.415       .  A
C1800      C1801   1.379       .  A
C1800      H1812   1.082       .  S
C1801      H1813   1.082       .  S
C1802      C1803   1.379       .  A
C1802      H1814   1.082       .  S
C1803      H1815   1.082       .  S
C1804      C1805   1.367       .  A
C1804      H1816   1.082       .  S
C1805      H1817   1.082       .  S
C1806      C1807   1.366       .  A
C1806      H1818   1.082       .  S
C1807      H1819   1.082       .  S
C1808      C1889   1.486       .  S
C1809      C1973   1.486       .  S
C1810      C1987   1.486       .  S
C1811      C1900   1.487       .  S
N1822      C1827   1.352       .  A
N1822      C1826   1.351       .  A
N1822      H1854   1.040       .  S
N1823      C1830   1.351       .  A
N1823      C1831   1.351       .  A
N1824      C1829   1.351   1_565  A
N1824      C1828   1.351   1_565  A
N1824      H1855   1.040       .  S
N1825      C1832   1.350       .  A
N1825      C1833   1.350       .  A
C1826      C1834   1.387   1_565  A
C1826      C1842   1.414       .  A
C1827      C1843   1.413       .  A
C1827      C1835   1.386   1_565  A
C1828      C1836   1.387       .  A
C1828      C1845   1.412   1_545  A
C1829      C1844   1.411   1_545  A
C1829      C1837   1.387       .  A
C1830      C1842   1.413       .  A
C1830      C1838   1.386       .  A
C1831      C1845   1.414       .  A
C1831      C1839   1.388       .  A
C1832      C2608   1.387       .  A
C1832      C1843   1.411       .  A
C1833      C2609   1.387       .  A
C1833      C1844   1.411       .  A
C1834      C1835   1.379       .  A
C1834      H1846   1.082       .  S
C1835      H1847   1.082       .  S
C1836      C1837   1.379       .  A
C1836      H1848   1.082       .  S
C1837      H1849   1.083       .  S
C1838      C1839   1.366       .  A
C1838      H1850   1.082       .  S
C1839      H1851   1.082       .  S
C1840      C2600   1.386       .  A
C1840      C1841   1.369       .  A
C1840      H1852   1.082       .  S
C1841      C2601   1.387       .  A
C1841      H1853   1.083       .  S
C1842      C1945   1.484       .  S
C1843      C1917   1.483       .  S
C1844      C2696   1.481   1_565  S
C1845      C1956   1.482       .  S
C1856      C1998   1.573       .  S
C1857      C1858   1.402       .  A
C1857      C1862   1.410       .  A
C1857      H1864   1.084       .  S
C1859      C1860   1.407       .  A
C1859      N1866   1.438       .  S
C1860      H1865   1.078       .  S
C1861      C1862   1.425   1_455  A
C1862      N1863   1.431       .  S
N1863      H1867   1.045       .  S
N1863      H1868   1.046       .  S
N1866      H1869   1.045       .  S
N1866      H1870   1.046       .  S
C1871      C1872   1.392       .  A
C1871      C1876   1.401       .  A
C1871      H1878   1.084       .  S
C1873      C1874   1.408       .  A
C1873      N1880   1.438       .  S
C1874      H1879   1.079       .  S
C1875      C1876   1.429       .  A
C1876      N1877   1.432       .  S
N1877      H1881   1.045   1_455  S
N1877      H1882   1.046       .  S
N1880      H1883   1.045       .  S
N1880      H1884   1.046       .  S
C1885      C1886   1.404       .  A
C1885      C1890   1.400       .  A
C1885      H1892   1.084       .  S
C1887      C1888   1.406       .  A
C1887      N1894   1.437       .  S
C1888      C1889   1.400       .  A
C1888      H1893   1.084       .  S
C1890      N1891   1.439       .  S
N1891      H1895   1.046       .  S
N1891      H1896   1.044       .  S
N1894      H1897   1.045       .  S
N1894      H1898   1.046       .  S
C1899      C1900   1.399       .  A
C1899      C1904   1.405       .  A
C1899      H1906   1.084       .  S
C1901      C1902   1.399       .  A
C1901      N1908   1.438       .  S
C1902      C1903   1.403       .  A
C1902      H1907   1.084       .  S
C1904      N1905   1.434       .  S
N1905      H1909   1.045       .  S
N1905      H1910   1.046       .  S
N1908      H1911   1.043       .  S
N1908      H1912   1.046       .  S
C1913      C1914   1.403       .  A
C1913      C1918   1.401       .  A
C1913      H1920   1.079       .  S
C1914      C2683   1.412       .  A
C1915      C2682   1.412   1_545  A
C1915      C1916   1.401       .  A
C1915      N1922   1.432       .  S
C1916      C1917   1.402   1_545  A
C1916      H1921   1.084       .  S
C1917      C2686   1.413       .  A
C1918      C2685   1.413       .  A
C1918      N1919   1.438       .  S
N1919      H1923   1.045       .  S
N1919      H1924   1.043       .  S
N1922      H1925   1.045       .  S
N1922      H1926   1.046       .  S
C1927      C1928   1.402       .  A
C1927      C1932   1.407       .  A
C1927      H1934   1.084       .  S
C1928      C2697   1.417       .  A
C1928      C2612   1.485       .  S
C1929      C2696   1.414       .  A
C1929      C1930   1.397       .  A
C1929      N1936   1.438       .  S
C1930      C2699   1.402       .  A
C1930      H1935   1.084       .  S
C1931      C2698   1.401       .  A
C1931      C1932   1.413       .  A
C1932      N1933   1.438       .  S
N1933      H1937   1.045       .  S
N1933      H1938   1.046       .  S
N1936      H1939   1.044       .  S
N1936      H1940   1.045       .  S
C1941      C2710   1.406       .  A
C1941      C1946   1.399       .  A
C1941      H1948   1.083       .  S
C1942      C2709   1.408   1_545  A
C1942      C1943   1.415       .  A
C1943      C1944   1.407       .  A
C1943      N1950   1.436       .  S
C1944      C1945   1.402   1_545  A
C1944      H1949   1.084       .  S
C1945      C2714   1.412       .  A
C1946      C2713   1.414       .  A
C1946      N1947   1.439       .  S
N1947      H1951   1.046       .  S
N1947      H1952   1.043       .  S
N1950      H1953   1.044       .  S
N1950      H1954   1.046       .  S
C1955      C1956   1.399   1_545  A
C1955      C1960   1.404       .  A
C1955      H1962   1.084       .  S
C1956      C2725   1.414       .  A
C1957      C2724   1.415       .  A
C1957      C1958   1.399       .  A
C1957      N1964   1.439       .  S
C1958      C2727   1.404       .  A
C1958      H1963   1.084       .  S
C1959      C2726   1.405       .  A
C1959      C1960   1.417   1_565  A
C1960      N1961   1.435       .  S
N1961      H1965   1.046       .  S
N1961      H1966   1.045       .  S
N1964      H1967   1.044       .  S
N1964      H1968   1.045       .  S
C1969      C1974   1.403       .  A
C1969      H1976   1.082       .  S
C1970      C1971   1.416       .  A
C1971      C1972   1.406       .  A
C1971      N1978   1.438       .  S
C1972      H1977   1.084       .  S
C1973      C1974   1.407       .  A
C1974      N1975   1.438       .  S
N1975      H1979   1.046       .  S
N1975      H1980   1.046       .  S
N1978      H1981   1.041       .  S
N1978      H1982   1.046       .  S
C1983      C1984   1.405       .  A
C1983      C1988   1.396       .  A
C1983      H1990   1.084       .  S
C1985      C1986   1.406       .  A
C1985      N1992   1.437       .  S
C1986      C1987   1.401       .  A
C1986      H1991   1.084       .  S
C1988      N1989   1.438       .  S
N1989      H1993   1.046       .  S
N1989      H1994   1.043       .  S
N1992      H1995   1.046       .  S
N1992      H1996   1.046       .  S
C1997      C1998   1.421       .  A
C1997      C2002   1.398       .  A
C1997      H2004   1.084       .  S
C1998      C1999   1.428       .  A
C1999      C2000   1.407       .  A
C1999      N2006   1.431       .  S
C2000      C2001   1.399       .  A
C2000      H2005   1.084       .  S
C2001      C2002   1.407       .  A
C2002      N2003   1.439       .  S
N2003      H2007   1.046       .  S
N2003      H2008   1.043       .  S
N2006      H2009   1.046       .  S
N2006      H2010   1.046       .  S
C2011      C2012   1.395       .  A
C2011      C2016   1.401       .  A
C2011      H2018   1.085       .  S
C2012      C2013   1.410       .  A
C2013      C2014   1.410       .  A
C2013      N2020   1.437       .  S
C2014      C2015   1.418       .  A
C2014      H2019   1.083       .  S
C2015      C2016   1.434       .  A
C2016      N2017   1.432       .  S
N2017      H2021   1.046       .  S
N2017      H2022   1.046       .  S
N2020      H2023   1.045       .  S
N2020      H2024   1.047       .  S
C2025      C2026   1.399       .  A
C2025      C2030   1.403       .  A
C2025      H2032   1.084       .  S
C2026      C2027   1.413       .  A
C2027      C2028   1.400       .  A
C2027      N2034   1.438       .  S
C2028      C2029   1.405       .  A
C2028      H2033   1.084       .  S
C2029      C2030   1.416       .  A
C2030      N2031   1.438       .  S
N2031      H2035   1.045       .  S
N2031      H2036   1.046       .  S
N2034      H2037   1.044       .  S
N2034      H2038   1.045       .  S
C2039      C2040   1.400       .  A
C2039      C2044   1.403       .  A
C2039      H2046   1.084       .  S
C2040      C2041   1.407       .  A
C2041      C2042   1.404       .  A
C2041      N2048   1.437       .  S
C2042      C2043   1.407       .  A
C2042      H2047   1.083       .  S
C2043      C2044   1.411       .  A
C2044      N2045   1.430       .  S
N2045      H2049   1.045       .  S
N2045      H2050   1.046       .  S
N2048      H2051   1.046       .  S
N2048      H2052   1.045       .  S
C2053      C2054   1.405       .  A
C2053      C2058   1.397       .  A
C2053      H2060   1.081       .  S
C2054      C2055   1.416       .  A
C2055      C2056   1.403       .  A
C2055      N2062   1.438       .  S
C2056      C2057   1.400       .  A
C2056      H2061   1.084       .  S
C2057      C2058   1.412       .  A
C2058      N2059   1.438       .  S
N2059      H2063   1.045       .  S
N2059      H2064   1.044       .  S
N2062      H2065   1.046       .  S
N2062      H2066   1.046       .  S
C2067      C2068   1.400       .  A
C2067      C2072   1.405       .  A
C2067      H2074   1.084       .  S
C2068      C2069   1.410       .  A
C2069      C2070   1.404       .  A
C2069      N2076   1.438       .  S
C2070      C2071   1.404       .  A
C2070      H2075   1.083       .  S
C2071      C2072   1.414       .  A
C2072      N2073   1.437       .  S
N2073      H2077   1.045       .  S
N2073      H2078   1.046       .  S
N2076      H2079   1.045       .  S
N2076      H2080   1.046       .  S
C2081      C2082   1.416   1_655  A
C2081      C2086   1.409       .  A
C2081      H2088   1.078       .  S
C2083      C2084   1.402       .  A
C2083      N2090   1.433       .  S
C2084      H2089   1.084       .  S
C2085      C2086   1.406       .  A
C2086      N2087   1.438       .  S
N2087      H2091   1.045   1_655  S
N2087      H2092   1.047       .  S
N2090      H2093   1.046       .  S
N2090      H2094   1.046       .  S
C2095      C2100   1.412       .  A
C2095      H2102   1.084       .  S
C2096      C2097   1.405   1_455  A
C2097      C2098   1.402       .  A
C2097      N2104   1.439       .  S
C2098      C2099   1.420   1_655  A
C2098      H2103   1.077       .  S
C2100      N2101   1.433       .  S
N2101      H2105   1.046       .  S
N2101      H2106   1.045       .  S
N2104      H2107   1.044       .  S
N2104      H2108   1.047       .  S
C2109      C2110   1.419       .  A
C2109      C2114   1.395       .  A
C2109      H2116   1.078       .  S
C2110      C2111   1.425       .  A
C2111      C2112   1.408       .  A
C2111      N2118   1.432       .  S
C2112      C2113   1.403       .  A
C2112      H2117   1.084       .  S
C2113      C2114   1.411       .  A
C2114      N2115   1.434       .  S
N2115      H2119   1.045       .  S
N2115      H2120   1.045       .  S
N2118      H2121   1.046       .  S
N2118      H2122   1.045       .  S
C2123      C2124   1.393       .  A
C2123      C2128   1.400       .  A
C2123      H2130   1.084       .  S
C2124      C2125   1.413       .  A
C2125      C2126   1.403       .  A
C2125      N2132   1.439       .  S
C2126      C2127   1.415       .  A
C2126      H2131   1.078       .  S
C2127      C2128   1.429       .  A
C2128      N2129   1.433       .  S
N2129      H2133   1.046       .  S
N2129      H2134   1.045       .  S
N2132      H2135   1.043       .  S
N2132      H2136   1.046       .  S
C2137      C2138   1.424   1_545  A
C2137      C2142   1.398       .  A
C2137      H2144   1.079       .  S
C2138      C2907   1.424       .  A
C2139      C2906   1.425       .  A
C2139      C2140   1.409       .  A
C2139      N2146   1.431       .  S
C2140      C2909   1.403       .  A
C2140      H2145   1.084       .  S
C2141      C2908   1.402       .  A
C2141      C2142   1.407   1_565  A
C2142      N2143   1.434       .  S
N2143      H2147   1.044       .  S
N2143      H2148   1.046       .  S
N2146      H2149   1.046       .  S
N2146      H2150   1.046       .  S
C2151      C2920   1.416       .  A
C2151      C2156   1.407       .  A
C2151      H2158   1.079       .  S
C2152      C2919   1.415       .  A
C2152      C2153   1.428       .  A
C2153      C2154   1.402       .  A
C2153      N2160   1.431       .  S
C2154      C2155   1.393       .  A
C2154      H2159   1.084       .  S
C2155      C2924   1.415       .  A
C2156      C2923   1.414       .  A
C2156      N2157   1.439       .  S
N2157      H2161   1.046       .  S
N2157      H2162   1.043       .  S
N2160      H2163   1.045   1_545  S
N2160      H2164   1.046       .  S
C2165      C2166   1.421       .  A
C2165      C2170   1.401       .  A
C2165      H2172   1.084       .  S
C2166      C2167   1.428       .  A
C2167      C2168   1.407       .  A
C2167      N2174   1.431       .  S
C2168      C2169   1.399       .  A
C2168      H2173   1.084       .  S
C2169      C2170   1.408       .  A
C2170      N2171   1.439       .  S
N2171      H2175   1.045       .  S
N2171      H2176   1.044       .  S
N2174      H2177   1.046       .  S
N2174      H2178   1.046       .  S
C2179      C2180   1.416       .  A
C2179      C2184   1.407       .  A
C2179      H2186   1.083       .  S
C2180      C2340   1.569       .  S
C2180      C2181   1.434       .  A
C2181      C2182   1.404       .  A
C2181      N2188   1.432       .  S
C2182      C2183   1.396       .  A
C2182      H2187   1.085       .  S
C2183      C2184   1.409       .  A
C2184      N2185   1.437       .  S
N2185      H2189   1.048       .  S
N2185      H2190   1.043       .  S
N2188      H2191   1.046       .  S
N2188      H2192   1.045       .  S
C2193      C2194   1.403       .  A
C2193      C2198   1.407       .  A
C2193      H2200   1.084       .  S
C2194      C2195   1.411       .  A
C2195      C2196   1.397       .  A
C2195      N2202   1.439       .  S
C2196      C2197   1.406       .  A
C2196      H2201   1.081       .  S
C2197      C2198   1.414       .  A
C2198      N2199   1.437       .  S
N2199      H2203   1.046       .  S
N2199      H2204   1.045       .  S
N2202      H2205   1.043       .  S
N2202      H2206   1.045       .  S
C2207      C2208   1.398       .  A
C2207      C2212   1.398       .  A
C2207      H2214   1.084       .  S
C2208      C2209   1.404       .  A
C2209      C2210   1.398       .  A
C2209      N2216   1.433       .  S
C2210      C2211   1.405       .  A
C2210      H2215   1.084       .  S
C2211      C2212   1.420       .  A
C2212      N2213   1.432       .  S
N2213      H2217   1.045       .  S
N2213      H2218   1.045       .  S
N2216      H2219   1.045       .  S
N2216      H2220   1.046       .  S
C2221      C2222   1.399       .  A
C2221      C2226   1.403       .  A
C2221      H2228   1.084       .  S
C2222      C2223   1.413       .  A
C2223      C2224   1.397       .  A
C2223      N2230   1.438       .  S
C2224      C2225   1.403       .  A
C2224      H2229   1.083       .  S
C2225      C2226   1.416       .  A
C2226      N2227   1.436       .  S
N2227      H2231   1.046       .  S
N2227      H2232   1.045       .  S
N2230      H2233   1.044       .  S
N2230      H2234   1.045       .  S
C2235      C2236   1.399       .  A
C2235      C2240   1.404       .  A
C2235      H2242   1.084       .  S
C2236      C2237   1.415       .  A
C2237      C2238   1.399       .  A
C2237      N2244   1.438       .  S
C2238      C2239   1.403       .  A
C2238      H2243   1.084       .  S
C2239      C2240   1.417       .  A
C2240      N2241   1.438       .  S
N2241      H2245   1.046       .  S
N2241      H2246   1.045       .  S
N2244      H2247   1.044       .  S
N2244      H2248   1.045       .  S
C2249      C2250   1.416       .  A
C2249      C2254   1.408       .  A
C2249      H2256   1.079       .  S
C2250      C3019   1.429       .  A
C2251      C3018   1.428   1_565  A
C2251      C2252   1.399       .  A
C2251      N2258   1.430       .  S
C2252      C3021   1.391   1_565  A
C2252      H2257   1.084       .  S
C2253      C3020   1.393       .  A
C2253      C2254   1.415       .  A
C2254      N2255   1.439       .  S
N2255      H2259   1.045       .  S
N2255      H2260   1.044       .  S
N2258      H2261   1.046       .  S
N2258      H2262   1.046   1_565  S
C2263      C3032   1.396   1_545  A
C2263      C2268   1.404       .  A
C2263      H2270   1.084       .  S
C2264      C3031   1.394       .  A
C2264      C2265   1.409       .  A
C2265      C2266   1.409       .  A
C2265      N2272   1.437       .  S
C2266      C2267   1.417       .  A
C2266      H2271   1.083       .  S
C2267      C3036   1.437       .  A
C2268      C3035   1.434       .  A
C2268      N2269   1.432       .  S
N2269      H2273   1.046       .  S
N2269      H2274   1.046       .  S
N2272      H2275   1.046       .  S
N2272      H2276   1.045       .  S
C2277      C2278   1.420       .  A
C2277      C2282   1.400       .  A
C2277      H2284   1.084       .  S
C2278      C2305   1.563       .  S
C2278      C2279   1.427       .  A
C2279      C2280   1.405       .  A
C2279      N2286   1.432       .  S
C2280      C2281   1.397       .  A
C2280      H2285   1.084       .  S
C2281      C2282   1.408       .  A
C2282      N2283   1.439       .  S
N2283      H2287   1.046       .  S
N2283      H2288   1.043       .  S
N2286      H2289   1.046       .  S
N2286      H2290   1.045       .  S
C2291      C2292   1.402       .  A
C2291      C2296   1.409       .  A
C2291      H2298   1.084       .  S
C2292      C2293   1.412       .  A
C2293      C2294   1.400       .  A
C2293      N2300   1.441       .  S
C2294      C2295   1.419       .  A
C2294      H2299   1.079       .  S
C2295      C2296   1.425       .  A
C2296      N2297   1.431       .  S
N2297      H2301   1.045       .  S
N2297      H2302   1.045       .  S
N2300      H2303   1.042       .  S
N2300      H2304   1.045       .  S
C2305      C3018   1.572       .  S
C2305      C3035   1.576       .  S
C2305      C3063   1.567   1_545  S
N2306      C2311   1.352       .  A
N2306      C2310   1.351   1_554  A
N2306      H2338   1.039       .  S
N2307      C2315   1.350       .  A
N2308      C2313   1.352       .  A
N2308      C2312   1.351   1_554  A
N2308      H2339   1.038       .  S
N2309      C2317   1.350       .  A
C2310      C2318   1.387       .  A
C2310      C2326   1.412       .  A
C2311      C2327   1.412       .  A
C2311      C2319   1.386       .  A
C2312      C2320   1.388       .  A
C2312      C2329   1.413       .  A
C2313      C2328   1.413       .  A
C2313      C2321   1.386       .  A
C2314      C2326   1.415       .  A
C2314      C2322   1.386       .  A
C2315      C2329   1.414       .  A
C2315      C2323   1.388       .  A
C2316      C2324   1.386       .  A
C2316      C2327   1.410       .  A
C2317      C2325   1.387       .  A
C2317      C2328   1.411       .  A
C2318      C2319   1.378   1_556  A
C2318      H2330   1.082       .  S
C2319      H2331   1.082       .  S
C2320      C2321   1.379   1_556  A
C2320      H2332   1.082       .  S
C2321      H2333   1.082       .  S
C2322      H2334   1.082       .  S
C2323      H2335   1.081       .  S
C2324      H2336   1.082       .  S
C2325      H2337   1.082       .  S
C2326      C3004   1.485       .  S
C2327      C2976   1.483       .  S
C2328      C2962   1.484       .  S
C2329      C2990   1.482       .  S
C2340      C2906   1.579       .  S
C2340      C2920   1.567       .  S
C2340      C2934   1.576       .  S
C2341      C2878   1.571       .  S
N2342      C2347   1.351   1_554  A
N2342      C2346   1.351       .  A
N2342      H2374   1.036       .  S
N2343      C2351   1.351   1_545  A
N2344      C2349   1.351   1_554  A
N2344      C2348   1.350       .  A
N2344      H2375   1.036       .  S
N2345      C2353   1.350       .  A
C2346      C2354   1.386       .  A
C2346      C2362   1.411       .  A
C2347      C2363   1.412       .  A
C2347      C2355   1.387       .  A
C2348      C2356   1.386       .  A
C2348      C2365   1.411       .  A
C2349      C2364   1.412       .  A
C2349      C2357   1.387       .  A
C2350      C2362   1.411       .  A
C2350      C2358   1.386       .  A
C2351      C2365   1.413       .  A
C2351      C2359   1.387       .  A
C2352      C2360   1.388       .  A
C2352      C2363   1.414       .  A
C2353      C2361   1.387       .  A
C2353      C2364   1.412       .  A
C2354      C2355   1.377   1_554  A
C2354      H2366   1.082       .  S
C2355      H2367   1.082       .  S
C2356      C2357   1.379   1_554  A
C2356      H2368   1.082       .  S
C2357      H2369   1.082       .  S
C2358      H2370   1.082       .  S
C2359      H2371   1.082       .  S
C2360      H2372   1.081       .  S
C2361      H2373   1.082       .  S
C2362      C2794   1.481       .  S
C2363      C2825   1.482       .  S
C2364      C2836   1.479       .  S
C2365      C2808   1.479       .  S
N2376      N2377   1.319       .  A
N2376      N2382   1.313       .  A
N2376     Mn2405   2.195       .  S
N2377      C2384   1.353       .  A
N2378      N2380   1.317       .  A
N2378      N2379   1.321       .  A
N2378     Mn2394   2.207       .  S
N2379      C2385   1.353       .  A
N2380      N2381   1.322       .  A
N2380     Mn2405   2.219       .  S
N2381      C2385   1.356       .  A
N2382      N2383   1.319       .  A
N2382     Mn2394   2.184       .  S
N2383      C2384   1.352       .  A
C2384      C2839   1.478       .  S
C2385      C2951   1.487       .  S
N2386      N2392   1.316       .  A
N2386      N2387   1.320       .  A
N2386     Mn2416   2.201       .  S
N2387      C2395   1.352       .  A
N2388      N2389   1.321       .  A
N2388      N2390   1.314       .  A
N2388     Mn2394   2.194       .  S
N2389      C2396   1.352       .  A
N2390      N2391   1.321       .  A
N2390     Mn2416   2.207       .  S
N2391      C2396   1.354       .  A
N2392      N2393   1.319       .  A
N2392     Mn2394   2.201       .  S
N2393      C2395   1.352       .  A
Mn2394    Cl2418   2.547       .  S
C2395      C2892   1.467       .  S
C2396      C3007   1.485       .  S
N2397      N2398   1.321       .  A
N2397      N2403   1.317       .  A
N2397     Mn2405   2.201       .  S
N2398      C2406   1.354       .  A
N2399      N2401   1.314       .  A
N2399      N2400   1.320       .  A
N2399     Mn2417   2.193       .  S
N2400      C2407   1.353       .  A
N2401      N2402   1.319       .  A
N2401     Mn2405   2.197       .  S
N2402      C2407   1.353       .  A
N2403      N2404   1.319       .  A
N2403     Mn2417   2.209       .  S
N2404      C2406   1.353       .  A
Mn2405    Cl2418   2.546       .  S
C2406      C2881   1.484       .  S
C2407      C2993   1.483       .  S
N2408      N2409   1.319       .  A
N2408      N2414   1.313       .  A
N2408     Mn2416   2.189       .  S
N2409      C2419   1.352       .  A
N2410      N2411   1.321       .  A
N2410      N2412   1.317       .  A
N2410     Mn2417   2.211       .  S
N2411      C2420   1.353       .  A
N2412      N2413   1.324       .  A
N2412     Mn2416   2.224       .  S
N2413      C2420   1.356       .  A
N2414      N2415   1.320       .  A
N2414     Mn2417   2.201       .  S
N2415      C2419   1.355       .  A
Mn2416    Cl2418   2.548       .  S
Mn2417    Cl2418   2.545       .  S
C2419      C2822   1.486       .  S
C2420      C2937   1.480       .  S
N2421      N2422   1.322       .  A
N2421      N2427   1.318       .  A
N2421     Mn2450   2.209       .  S
N2422      C2429   1.354       .  A
N2423      N2425   1.314       .  A
N2423      N2424   1.318       .  A
N2423     Mn2439   2.184       .  S
N2424      C2430   1.351       .  A
N2425      N2426   1.320       .  A
N2425     Mn2450   2.202       .  S
N2426      C2430   1.354       .  A
N2427      N2428   1.318       .  A
N2427     Mn2439   2.205       .  S
N2428      C2429   1.353       .  A
C2429      C3060   1.479       .  S
C2430      C2811   1.483       .  S
N2431      N2437   1.313       .  A
N2431      N2432   1.319       .  A
N2431     Mn2461   2.192       .  S
N2432      C2440   1.352       .  A
N2433      N2434   1.322       .  A
N2433      N2435   1.316       .  A
N2433     Mn2439   2.212       .  S
N2434      C2441   1.355       .  A
N2435      N2436   1.321       .  A
N2435     Mn2461   2.214       .  S
N2436      C2441   1.355       .  A
N2437      N2438   1.321       .  A
N2437     Mn2439   2.199       .  S
N2438      C2440   1.353       .  A
Mn2439    Cl2463   2.546       .  S
C2440      C2979   1.481       .  S
C2441      C2780   1.487       .  S
N2442      N2443   1.319       .  A
N2442      N2448   1.314       .  A
N2442     Mn2450   2.197       .  S
N2443      C2451   1.353       .  A
N2444      N2446   1.317       .  A
N2444      N2445   1.319       .  A
N2444     Mn2462   2.193       .  S
N2445      C2452   1.350       .  A
N2446      N2447   1.322       .  A
N2446     Mn2450   2.220       .  S
N2447      C2452   1.355       .  A
N2448      N2449   1.321       .  A
N2448     Mn2462   2.197       .  S
N2449      C2451   1.353       .  A
Mn2450    Cl2463   2.548       .  S
C2451      C2965   1.481       .  S
C2452      C2769   1.470       .  S
N2453      N2454   1.319       .  A
N2453      N2459   1.316       .  A
N2453     Mn2461   2.198       .  S
N2454      C2464   1.351       .  A
N2455      N2456   1.318       .  A
N2455      N2457   1.314       .  A
N2455     Mn2462   2.181       .  S
N2456      C2465   1.350       .  A
N2457      N2458   1.320       .  A
N2457     Mn2461   2.202       .  S
N2458      C2465   1.354       .  A
N2459      N2460   1.321       .  A
N2459     Mn2462   2.208       .  S
N2460      C2464   1.354       .  A
Mn2461    Cl2463   2.545       .  S
Mn2462    Cl2463   2.546       .  S
C2464      C3049   1.469       .  S
C2465      C2797   1.479       .  S
N2466      N2467   1.321       .  A
N2466     Mn2495   2.204       .  S
N2467      C2474   1.352       .  A
N2468      N2469   1.320       .  A
N2468     Mn2484   2.196       .  S
N2470      N2471   1.320       .  A
N2470     Mn2495   2.203       .  S
N2471      C2475   1.353       .  A
N2472      N2473   1.320       .  A
N2472     Mn2484   2.208       .  S
C2474      C2853   1.470       .  S
C2475      C2738   1.481       .  S
N2476      N2477   1.317       .  A
N2476     Mn2506   2.183       .  S
N2478      N2479   1.322       .  A
N2478     Mn2484   2.210       .  S
N2479      C2486   1.353       .  A
N2480      N2481   1.322       .  A
N2480     Mn2506   2.216       .  S
N2482      N2483   1.320       .  A
N2482     Mn2484   2.193       .  S
N2483      C2485   1.353       .  A
C2485      C2710   1.485       .  S
C2486      C2923   1.475       .  S
N2487      N2488   1.318       .  A
N2487     Mn2495   2.189       .  S
N2488      C2496   1.351       .  A
N2489      N2490   1.321       .  A
N2489     Mn2507   2.207       .  S
N2491      N2492   1.321       .  A
N2491     Mn2495   2.218       .  S
N2492      C2497   1.355       .  A
N2493      N2494   1.320       .  A
N2493     Mn2507   2.198       .  S
Mn2495    Cl2508   2.547       .  S
C2496      C2727   1.484       .  S
C2497      C2909   1.483       .  S
N2498      N2499   1.323       .  A
N2498     Mn2506   2.205       .  S
N2500      N2501   1.319       .  A
N2500     Mn2507   2.194       .  S
N2501      C2510   1.353       .  A
N2502      N2503   1.318       .  A
N2502     Mn2506   2.193       .  S
N2504      N2505   1.320       .  A
N2504     Mn2507   2.213       .  S
N2505      C2509   1.354   1_655  A
C2509      C2864   1.489       .  S
C2510      C2752   1.487       .  S
N2511      N2512   1.318       .  A
N2511     Mn2540   2.191       .  S
N2512      C2519   1.350       .  A
N2513      N2514   1.320       .  A
N2513     Mn2529   2.198       .  S
N2515      N2516   1.319       .  A
N2515     Mn2540   2.185       .  S
N2516      C2520   1.351       .  A
N2517      N2518   1.324       .  A
N2517     Mn2529   2.233       .  S
C2519      C2626   1.477       .  S
C2520      C2671   1.480       .  S
N2521      N2522   1.317       .  A
N2521     Mn2551   2.182       .  S
N2523      N2524   1.322       .  A
N2523     Mn2529   2.217       .  S
N2524      C2531   1.355       .  A
N2525      N2526   1.321       .  A
N2525     Mn2551   2.214       .  S
N2527      N2528   1.321       .  A
N2527     Mn2529   2.208       .  S
N2528      C2530   1.356       .  A
C2530      C2682   1.483       .  S
C2531      C3032   1.485       .  S
N2532      N2533   1.319       .  A
N2532     Mn2540   2.187       .  S
N2533      C2541   1.351   1_565  A
N2534      N2535   1.321       .  A
N2534     Mn2552   2.206       .  S
N2536      N2537   1.320       .  A
N2536     Mn2540   2.204       .  S
N2537      C2542   1.352   1_565  A
N2538      N2539   1.320       .  A
N2538     Mn2552   2.189       .  S
Mn2540    Cl2553   2.543   1_655  S
C2541      C2699   1.475       .  S
C2542      C3021   1.471       .  S
N2543      N2544   1.321       .  A
N2543     Mn2551   2.205       .  S
N2545      N2546   1.317       .  A
N2545     Mn2552   2.189       .  S
N2546      C2555   1.350       .  A
N2547      N2548   1.323       .  A
N2547     Mn2551   2.204       .  S
N2549      N2550   1.319       .  A
N2549     Mn2552   2.200       .  S
N2550      C2554   1.351   1_655  A
C2554      C2640   1.465       .  S
C2555      C2654   1.481       .  S
N2556      C2561   1.355       .  A
N2556      C2560   1.354       .  A
N2556      H2588   1.039       .  S
N2557      C2564   1.352       .  A
N2557      C2565   1.352       .  A
N2558      C2563   1.351       .  A
N2558      C2562   1.350       .  A
N2558      H2589   1.037       .  S
N2559      C2566   1.351       .  A
N2559      C2567   1.351       .  A
C2560      C2568   1.386       .  A
C2560      C2576   1.417       .  A
C2561      C2577   1.418       .  A
C2561      C2569   1.387       .  A
C2562      C2570   1.387       .  A
C2562      C2579   1.410       .  A
C2563      C2578   1.411       .  A
C2563      C2571   1.387       .  A
C2564      C2576   1.414       .  A
C2564      C2572   1.387       .  A
C2565      C2579   1.413       .  A
C2565      C2573   1.386       .  A
C2566      C2574   1.387       .  A
C2566      C2577   1.414       .  A
C2567      C2575   1.387       .  A
C2567      C2578   1.413       .  A
C2568      C2569   1.380       .  A
C2568      H2580   1.082       .  S
C2569      H2581   1.082       .  S
C2570      C2571   1.378       .  A
C2570      H2582   1.083       .  S
C2571      H2583   1.082       .  S
C2572      C2573   1.368       .  A
C2572      H2584   1.082       .  S
C2573      H2585   1.082       .  S
C2574      C2575   1.368       .  A
C2574      H2586   1.082       .  S
C2575      H2587   1.082       .  S
C2576      C2657   1.490       .  S
C2577      C2741   1.492       .  S
C2578      C2755   1.481       .  S
C2579      C2668   1.481       .  S
N2590      C2595   1.351       .  A
N2590      C2594   1.351       .  A
N2590      H2622   1.041       .  S
N2591      C2598   1.352       .  A
N2591      C2599   1.352       .  A
N2592      C2597   1.353       .  A
N2592      C2596   1.350       .  A
N2592      H2623   1.040       .  S
N2593      C2600   1.349       .  A
N2593      C2601   1.349       .  A
C2594      C2602   1.386       .  A
C2594      C2610   1.411       .  A
C2595      C2611   1.412       .  A
C2595      C2603   1.387       .  A
C2596      C2604   1.387       .  A
C2596      C2613   1.413       .  A
C2597      C2612   1.414       .  A
C2597      C2605   1.387       .  A
C2598      C2610   1.413       .  A
C2598      C2606   1.386       .  A
C2599      C2613   1.416       .  A
C2599      C2607   1.388       .  A
C2600      C2611   1.410       .  A
C2601      C2612   1.411       .  A
C2602      C2603   1.379       .  A
C2602      H2614   1.082       .  S
C2603      H2615   1.082       .  S
C2604      C2605   1.380       .  A
C2604      H2616   1.082       .  S
C2605      H2617   1.082       .  S
C2606      C2607   1.366       .  A
C2606      H2618   1.082       .  S
C2607      H2619   1.082       .  S
C2608      C2609   1.369       .  A
C2608      H2620   1.082       .  S
C2609      H2621   1.082       .  S
C2610      C2713   1.484       .  S
C2611      C2685   1.481       .  S
C2613      C2724   1.483       .  S
C2624      C2766   1.573       .  S
C2625      C2626   1.401       .  A
C2625      C2630   1.405       .  A
C2625      H2632   1.084       .  S
C2627      C2628   1.407       .  A
C2627      N2634   1.439       .  S
C2628      H2633   1.076       .  S
C2629      C2630   1.424       .  A
C2630      N2631   1.431       .  S
N2631      H2635   1.045       .  S
N2631      H2636   1.047       .  S
N2634      H2637   1.045       .  S
N2634      H2638   1.046       .  S
C2639      C2640   1.389       .  A
C2639      C2644   1.397       .  A
C2639      H2646   1.084       .  S
C2641      C2642   1.409       .  A
C2641      N2648   1.438       .  S
C2642      H2647   1.078       .  S
C2643      C2644   1.429       .  A
C2644      N2645   1.431       .  S
N2645      H2649   1.045   1_455  S
N2645      H2650   1.046       .  S
N2648      H2651   1.046       .  S
N2648      H2652   1.046       .  S
C2653      C2654   1.404       .  A
C2653      C2658   1.397       .  A
C2653      H2660   1.084       .  S
C2655      C2656   1.409       .  A
C2655      N2662   1.437       .  S
C2656      C2657   1.402       .  A
C2656      H2661   1.084       .  S
C2658      N2659   1.438       .  S
N2659      H2663   1.046       .  S
N2659      H2664   1.044       .  S
N2662      H2665   1.046       .  S
N2662      H2666   1.045       .  S
C2667      C2668   1.399       .  A
C2667      C2672   1.403       .  A
C2667      H2674   1.084       .  S
C2669      C2670   1.399       .  A
C2669      N2676   1.438       .  S
C2670      C2671   1.404       .  A
C2670      H2675   1.084       .  S
C2672      N2673   1.435       .  S
N2673      H2677   1.044       .  S
N2673      H2678   1.047       .  S
N2676      H2679   1.044       .  S
N2676      H2680   1.046       .  S
C2681      C2682   1.404       .  A
C2681      C2686   1.401       .  A
C2681      H2688   1.079       .  S
C2683      C2684   1.400       .  A
C2683      N2690   1.432       .  S
C2684      C2685   1.401       .  A
C2684      H2689   1.084       .  S
C2686      N2687   1.438       .  S
N2687      H2691   1.046       .  S
N2687      H2692   1.043       .  S
N2690      H2693   1.046       .  S
N2690      H2694   1.045       .  S
C2695      C2696   1.401   1_565  A
C2695      C2700   1.405       .  A
C2695      H2702   1.084       .  S
C2697      C2698   1.398       .  A
C2697      N2704   1.438       .  S
C2698      H2703   1.084       .  S
C2699      C2700   1.414   1_545  A
C2700      N2701   1.438       .  S
N2701      H2705   1.046       .  S
N2701      H2706   1.046       .  S
N2704      H2707   1.044       .  S
N2704      H2708   1.045       .  S
C2709      C2714   1.399       .  A
C2709      H2716   1.082       .  S
C2710      C2711   1.416       .  A
C2711      C2712   1.405       .  A
C2711      N2718   1.437       .  S
C2712      C2713   1.401       .  A
C2712      H2717   1.084       .  S
C2714      N2715   1.439       .  S
N2715      H2719   1.043       .  S
N2715      H2720   1.045       .  S
N2718      H2721   1.044       .  S
N2718      H2722   1.046       .  S
C2723      C2724   1.400       .  A
C2723      C2728   1.405       .  A
C2723      H2730   1.084       .  S
C2725      C2726   1.399       .  A
C2725      N2732   1.439       .  S
C2726      H2731   1.084       .  S
C2727      C2728   1.417       .  A
C2728      N2729   1.437       .  S
N2729      H2733   1.046       .  S
N2729      H2734   1.046       .  S
N2732      H2735   1.044       .  S
N2732      H2736   1.045       .  S
C2737      C2742   1.408       .  A
C2737      H2744   1.082       .  S
C2738      C2739   1.412       .  A
C2739      C2740   1.404       .  A
C2739      N2746   1.438       .  S
C2740      H2745   1.084       .  S
C2741      C2742   1.408       .  A
C2742      N2743   1.438       .  S
N2743      H2747   1.046       .  S
N2743      H2748   1.046       .  S
N2746      H2749   1.044       .  S
N2746      H2750   1.046       .  S
C2751      C2752   1.407       .  A
C2751      C2756   1.399       .  A
C2751      H2758   1.084       .  S
C2753      C2754   1.403       .  A
C2753      N2760   1.437       .  S
C2754      C2755   1.399       .  A
C2754      H2759   1.084       .  S
C2756      N2757   1.438       .  S
N2757      H2761   1.046       .  S
N2757      H2762   1.043       .  S
N2760      H2763   1.045       .  S
N2760      H2764   1.045       .  S
C2765      C2766   1.421       .  A
C2765      C2770   1.399       .  A
C2765      H2772   1.084       .  S
C2766      C2767   1.428       .  A
C2767      C2768   1.406       .  A
C2767      N2774   1.431       .  S
C2768      C2769   1.398       .  A
C2768      H2773   1.084       .  S
C2769      C2770   1.407       .  A
C2770      N2771   1.439       .  S
N2771      H2775   1.045       .  S
N2771      H2776   1.044       .  S
N2774      H2777   1.046       .  S
N2774      H2778   1.046       .  S
C2779      C2780   1.396       .  A
C2779      C2784   1.404       .  A
C2779      H2786   1.085       .  S
C2780      C2781   1.410       .  A
C2781      C2782   1.410       .  A
C2781      N2788   1.437       .  S
C2782      C2783   1.416       .  A
C2782      H2787   1.083       .  S
C2783      C2784   1.435       .  A
C2784      N2785   1.433       .  S
N2785      H2789   1.046       .  S
N2785      H2790   1.046       .  S
N2788      H2791   1.045       .  S
N2788      H2792   1.046       .  S
C2793      C2794   1.400       .  A
C2793      C2798   1.404       .  A
C2793      H2800   1.084       .  S
C2794      C2795   1.414       .  A
C2795      C2796   1.397       .  A
C2795      N2802   1.438       .  S
C2796      C2797   1.403       .  A
C2796      H2801   1.084       .  S
C2797      C2798   1.416       .  A
C2798      N2799   1.438       .  S
N2799      H2803   1.045       .  S
N2799      H2804   1.046       .  S
N2802      H2805   1.043       .  S
N2802      H2806   1.046       .  S
C2807      C2808   1.398       .  A
C2807      C2812   1.404       .  A
C2807      H2814   1.084       .  S
C2808      C2809   1.405       .  A
C2809      C2810   1.402       .  A
C2809      N2816   1.438       .  S
C2810      C2811   1.408       .  A
C2810      H2815   1.083       .  S
C2811      C2812   1.416       .  A
C2812      N2813   1.437       .  S
N2813      H2817   1.046       .  S
N2813      H2818   1.045       .  S
N2816      H2819   1.046       .  S
N2816      H2820   1.046       .  S
C2821      C2822   1.406       .  A
C2821      C2826   1.398       .  A
C2821      H2828   1.083       .  S
C2822      C2823   1.418       .  A
C2823      C2824   1.404       .  A
C2823      N2830   1.438       .  S
C2824      C2825   1.400       .  A
C2824      H2829   1.084       .  S
C2825      C2826   1.412       .  A
C2826      N2827   1.438       .  S
N2827      H2831   1.045       .  S
N2827      H2832   1.044       .  S
N2830      H2833   1.045       .  S
N2830      H2834   1.046       .  S
C2835      C2836   1.398       .  A
C2835      C2840   1.403       .  A
C2835      H2842   1.084       .  S
C2836      C2837   1.409       .  A
C2837      C2838   1.402       .  A
C2837      N2844   1.439       .  S
C2838      C2839   1.404       .  A
C2838      H2843   1.083       .  S
C2839      C2840   1.414       .  A
C2840      N2841   1.437       .  S
N2841      H2845   1.045       .  S
N2841      H2846   1.046       .  S
N2844      H2847   1.045       .  S
N2844      H2848   1.046       .  S
C2849      C2850   1.415       .  A
C2849      C2854   1.408       .  A
C2849      H2856   1.077       .  S
C2851      C2852   1.401       .  A
C2851      N2858   1.433       .  S
C2852      H2857   1.084       .  S
C2853      C2854   1.406       .  A
C2854      N2855   1.438   1_655  S
N2855      H2859   1.044       .  S
N2855      H2860   1.047   1_455  S
N2858      H2861   1.045       .  S
N2858      H2862   1.046       .  S
C2863      C2868   1.410       .  A
C2863      H2870   1.084       .  S
C2864      C2865   1.407   1_455  A
C2865      C2866   1.403       .  A
C2865      N2872   1.439       .  S
C2866      C2867   1.420   1_655  A
C2866      H2871   1.077       .  S
C2868      N2869   1.433       .  S
N2869      H2873   1.045       .  S
N2869      H2874   1.046       .  S
N2872      H2875   1.044       .  S
N2872      H2876   1.047       .  S
C2877      C2878   1.419       .  A
C2877      C2882   1.395       .  A
C2877      H2884   1.078       .  S
C2878      C2879   1.424       .  A
C2879      C2880   1.408       .  A
C2879      N2886   1.433       .  S
C2880      C2881   1.403       .  A
C2880      H2885   1.084       .  S
C2881      C2882   1.409       .  A
C2882      N2883   1.433       .  S
N2883      H2887   1.044       .  S
N2883      H2888   1.045       .  S
N2886      H2889   1.046       .  S
N2886      H2890   1.045       .  S
C2891      C2892   1.393       .  A
C2891      C2896   1.400       .  A
C2891      H2898   1.084       .  S
C2892      C2893   1.413       .  A
C2893      C2894   1.402       .  A
C2893      N2900   1.439       .  S
C2894      C2895   1.415       .  A
C2894      H2899   1.079       .  S
C2895      C2896   1.428       .  A
C2896      N2897   1.433       .  S
N2897      H2901   1.046       .  S
N2897      H2902   1.045       .  S
N2900      H2903   1.044       .  S
N2900      H2904   1.044       .  S
C2905      C2906   1.422       .  A
C2905      C2910   1.397       .  A
C2905      H2912   1.079       .  S
C2907      C2908   1.408       .  A
C2907      N2914   1.431       .  S
C2908      H2913   1.084       .  S
C2909      C2910   1.406       .  A
C2910      N2911   1.433       .  S
N2911      H2915   1.044       .  S
N2911      H2916   1.046       .  S
N2914      H2917   1.045       .  S
N2914      H2918   1.046       .  S
C2919      C2924   1.407       .  A
C2919      H2926   1.079       .  S
C2920      C2921   1.428       .  A
C2921      C2922   1.402       .  A
C2921      N2928   1.430       .  S
C2922      C2923   1.393       .  A
C2922      H2927   1.084       .  S
C2924      N2925   1.439       .  S
N2925      H2929   1.047       .  S
N2925      H2930   1.041       .  S
N2928      H2931   1.046       .  S
N2928      H2932   1.045       .  S
C2933      C2934   1.421       .  A
C2933      C2938   1.403       .  A
C2933      H2940   1.084       .  S
C2934      C2935   1.428       .  A
C2935      C2936   1.408       .  A
C2935      N2942   1.431       .  S
C2936      C2937   1.399       .  A
C2936      H2941   1.084       .  S
C2937      C2938   1.410       .  A
C2938      N2939   1.439       .  S
N2939      H2943   1.046       .  S
N2939      H2944   1.043       .  S
N2942      H2945   1.046       .  S
N2942      H2946   1.046       .  S
C2947      C2948   1.416       .  A
C2947      C2952   1.409       .  A
C2947      H2954   1.083       .  S
C2948      C2949   1.435       .  A
C2949      C2950   1.405       .  A
C2949      N2956   1.432       .  S
C2950      C2951   1.396       .  A
C2950      H2955   1.084       .  S
C2951      C2952   1.411       .  A
C2952      N2953   1.437       .  S
N2953      H2957   1.046       .  S
N2953      H2958   1.045       .  S
N2956      H2959   1.046       .  S
N2956      H2960   1.046       .  S
C2961      C2962   1.404       .  A
C2961      C2966   1.405       .  A
C2961      H2968   1.084       .  S
C2962      C2963   1.413       .  A
C2963      C2964   1.399       .  A
C2963      N2970   1.438       .  S
C2964      C2965   1.404       .  A
C2964      H2969   1.082       .  S
C2965      C2966   1.413       .  A
C2966      N2967   1.438       .  S
N2967      H2971   1.046       .  S
N2967      H2972   1.045       .  S
N2970      H2973   1.044       .  S
N2970      H2974   1.045       .  S
C2975      C2976   1.401       .  A
C2975      C2980   1.401       .  A
C2975      H2982   1.084       .  S
C2976      C2977   1.405       .  A
C2977      C2978   1.399       .  A
C2977      N2984   1.432       .  S
C2978      C2979   1.405       .  A
C2978      H2983   1.084       .  S
C2979      C2980   1.419       .  A
C2980      N2981   1.432       .  S
N2981      H2985   1.046       .  S
N2981      H2986   1.044       .  S
N2984      H2987   1.045       .  S
N2984      H2988   1.046       .  S
C2989      C2990   1.401       .  A
C2989      C2994   1.405       .  A
C2989      H2996   1.084       .  S
C2990      C2991   1.413       .  A
C2991      C2992   1.396       .  A
C2991      N2998   1.438       .  S
C2992      C2993   1.404       .  A
C2992      H2997   1.083       .  S
C2993      C2994   1.416       .  A
C2994      N2995   1.437       .  S
N2995      H2999   1.046       .  S
N2995      H3000   1.045       .  S
N2998      H3001   1.044       .  S
N2998      H3002   1.045       .  S
C3003      C3004   1.402       .  A
C3003      C3008   1.407       .  A
C3003      H3010   1.084       .  S
C3004      C3005   1.413       .  A
C3005      C3006   1.399       .  A
C3005      N3012   1.438       .  S
C3006      C3007   1.404       .  A
C3006      H3011   1.083       .  S
C3007      C3008   1.416       .  A
C3008      N3009   1.438       .  S
N3009      H3013   1.046       .  S
N3009      H3014   1.046       .  S
N3012      H3015   1.044       .  S
N3012      H3016   1.045       .  S
C3017      C3018   1.416       .  A
C3017      C3022   1.405       .  A
C3017      H3024   1.079       .  S
C3019      C3020   1.403       .  A
C3019      N3026   1.431       .  S
C3020      H3025   1.084       .  S
C3021      C3022   1.414       .  A
C3022      N3023   1.439       .  S
N3023      H3027   1.045       .  S
N3023      H3028   1.043       .  S
N3026      H3029   1.046       .  S
N3026      H3030   1.045       .  S
C3031      C3036   1.403       .  A
C3031      H3038   1.085       .  S
C3032      C3033   1.408       .  A
C3033      C3034   1.408       .  A
C3033      N3040   1.438       .  S
C3034      C3035   1.418   1_565  A
C3034      H3039   1.083       .  S
C3036      N3037   1.433       .  S
N3037      H3041   1.046       .  S
N3037      H3042   1.046       .  S
N3040      H3043   1.046       .  S
N3040      H3044   1.046       .  S
C3045      C3046   1.421       .  A
C3045      C3050   1.400       .  A
C3045      H3052   1.084       .  S
C3046      C3047   1.425       .  A
C3047      C3048   1.405       .  A
C3047      N3054   1.431       .  S
C3048      C3049   1.398       .  A
C3048      H3053   1.084       .  S
C3049      C3050   1.407       .  A
C3050      N3051   1.439       .  S
N3051      H3055   1.045       .  S
N3051      H3056   1.045       .  S
N3054      H3057   1.046       .  S
N3054      H3058   1.045       .  S
C3059      C3060   1.402       .  A
C3059      C3064   1.407       .  A
C3059      H3066   1.084       .  S
C3060      C3061   1.410       .  A
C3061      C3062   1.398       .  A
C3061      N3068   1.441       .  S
C3062      C3063   1.418       .  A
C3062      H3067   1.079       .  S
C3063      C3064   1.424       .  A
C3064      N3065   1.432       .  S
N3065      H3069   1.046       .  S
N3065      H3070   1.045       .  S
N3068      H3071   1.042       .  S
N3068      H3072   1.046       .  S
