geometry optimzed in LAMMPS
_audit_creation_date              2020-12-01 
_audit_creation_method            'lammps2cif' 
_symmetry_space_group_name_H-M    'P1' 
_symmetry_Int_Tables_number       1 
_symmetry_cell_setting            triclinic 
loop_ 
_symmetry_equiv_pos_as_xyz 
  x,y,z 
_cell_length_a                    60.07010724 
_cell_length_b                    60.043006861758116 
_cell_length_c                    72.21816812663543 
_cell_angle_alpha                 90.2925544745678 
_cell_angle_beta                  89.70699639069714 
_cell_angle_gamma                 120.68221025300576 
loop_ 
_atom_site_label 
_atom_site_type_symbol 
_atom_site_fract_x 
_atom_site_fract_y 
_atom_site_fract_z 
_atom_site_charge 
Zn1        Zn  0.83432766  0.15632277  0.14359780     1.49700
Zn2        Zn  0.79185980  0.14345010  0.17607886     1.49400
Zn3        Zn  0.84449316  0.14483002  0.18533692     1.49100
Zn4        Zn  0.84704779  0.19783454  0.17620763     1.49500
O5          O  0.82925926  0.16059509  0.17019683    -1.83900
O6          O  0.79938875  0.13586882  0.13061052    -0.74500
O7          O  0.78119881  0.11583164  0.19651828    -0.74300
O8          O  0.85820590  0.12718106  0.16924688    -0.73900
O9          O  0.77020923  0.12647072  0.15286102    -0.74500
O10         O  0.85325409  0.13634679  0.14033331    -0.74100
O11         O  0.81835804  0.11787128  0.20261008    -0.74700
O12         O  0.87586088  0.20827691  0.19510641    -0.74100
O13         O  0.78330564  0.17055790  0.18471471    -0.74900
O14         O  0.87439750  0.17129190  0.20077699    -0.74300
O15         O  0.82128001  0.20738400  0.18572771    -0.74700
O16         O  0.86362190  0.21972600  0.15336308    -0.74600
O17         O  0.85526616  0.19150897  0.13064953    -0.74400
C18         C  0.77584171  0.12536573  0.13592145     0.77400
C19         C  0.79423301  0.10811145  0.20558827     0.77800
C20         C  0.86093448  0.12566430  0.15187634     0.76800
C21         C  0.88464715  0.19558535  0.20330452     0.77200
C22         C  0.79676018  0.19487977  0.18785808     0.78300
C23         C  0.86539479  0.21485111  0.13639804     0.77400
N24         N  0.06955137  0.35003221  0.32137208    -0.03200
C25         C  0.06724147  0.36914175  0.32979161    -0.00700
C26         C  0.05346427  0.37659929  0.31876261    -0.23500
C27         C  0.04688400  0.36174414  0.30308478    -0.23700
C28         C  0.05680819  0.34559851  0.30499161    -0.00800
H29         H  0.04732391  0.39018171  0.32234394     0.13000
H30         H  0.03459092  0.36144768  0.29206196     0.13100
N31         N  0.68670718  0.94573975  0.35223185    -0.03200
C32         C  0.68176715  0.95203209  0.36940170    -0.00700
C33         C  0.69981280  0.97742561  0.37373673    -0.23500
C34         C  0.71580050  0.98765096  0.35877238    -0.23700
C35         C  0.70720089  0.96823290  0.34564444    -0.00800
H36         H  0.69950441  0.98825931  0.38566853     0.13000
H37         H  0.73055614  0.00779775  0.35699517     0.13100
N38         N  0.98366623  0.38586442  0.99653214    -0.03200
C39         C  0.98874077  0.37781099  0.98012343    -0.00700
C40         C  0.97090346  0.35202733  0.97689718    -0.23500
C41         C  0.95454869  0.34341585  0.99174540    -0.23700
C42         C  0.96278797  0.36416220  0.00370507    -0.00800
H43         H  0.97123339  0.34013793  0.96570012     0.13000
H44         H  0.93959942  0.32353675  0.99430511     0.13100
N45         N  0.61209273  0.01912398  0.99031360    -0.03200
C46         C  0.61916678  0.01478693  0.97326588    -0.00700
C47         C  0.64443882  0.03352360  0.96926513    -0.23500
C48         C  0.65373234  0.04951068  0.98431196    -0.23700
C49         C  0.63388524  0.04018223  0.99714665    -0.00800
H50         H  0.65579155  0.03388646  0.95745387     0.13000
H51         H  0.67359498  0.06483294  0.98633880     0.13100
Zn52       Zn  0.49697403  0.50856132  0.52408526     1.49700
Zn53       Zn  0.53950249  0.52127725  0.49230617     1.49400
Zn54       Zn  0.48467317  0.46696193  0.49130722     1.49100
Zn55       Zn  0.48666812  0.51917888  0.48193316     1.49500
O56         O  0.50204872  0.50401035  0.49753835    -1.83900
O57         O  0.53169678  0.52913875  0.53756991    -0.74500
O58         O  0.54844360  0.49494818  0.48284817    -0.74300
O59         O  0.46886562  0.44532405  0.51419781    -0.73900
O60         O  0.56088087  0.53743075  0.51560324    -0.74500
O61         O  0.47671198  0.47348327  0.53689815    -0.74100
O62         O  0.51065927  0.45799030  0.48148312    -0.74700
O63         O  0.45758118  0.49280913  0.46564818    -0.74100
O64         O  0.55053942  0.54973200  0.47292216    -0.74900
O65         O  0.45580296  0.45596754  0.47230289    -0.74300
O66         O  0.51340945  0.54703369  0.46553219    -0.74700
O67         O  0.47163088  0.53563563  0.49780855    -0.74600
O68         O  0.47709811  0.52762609  0.52694178    -0.74400
C69         C  0.55525399  0.53896915  0.53244303     0.77400
C70         C  0.53515272  0.47076007  0.47927898     0.77800
C71         C  0.46715045  0.45021757  0.53116393     0.76800
C72         C  0.44737201  0.46846308  0.46341223     0.77200
C73         C  0.53779253  0.55742915  0.46352522     0.78300
C74         C  0.46873506  0.53736249  0.51512743     0.77400
Zn75       Zn  0.69984732  0.85155656  0.81849083     1.49700
Zn76       Zn  0.64794372  0.85199521  0.82795258     1.49400
Zn77       Zn  0.64752177  0.79796249  0.82671211     1.49100
Zn78       Zn  0.67692453  0.83899548  0.86016455     1.49500
O79         O  0.66797878  0.83505143  0.83343482    -1.83900
O80         O  0.70202509  0.88008823  0.80237321    -0.74500
O81         O  0.61209213  0.82574490  0.81835967    -0.74300
O82         O  0.66623076  0.78857389  0.80708992    -0.73900
O83         O  0.66646431  0.88115841  0.80899918    -0.74500
O84         O  0.70279999  0.82566118  0.80197258    -0.74100
O85         O  0.61170463  0.78855917  0.81730451    -0.74700
O86         O  0.66163792  0.80347336  0.87234705    -0.74100
O87         O  0.64223703  0.86730452  0.85135520    -0.74900
O88         O  0.64160576  0.77554330  0.84939857    -0.74300
O89         O  0.66167805  0.85832595  0.87371778    -0.74700
O90         O  0.71641131  0.85910741  0.86384564    -0.74600
O91         O  0.73119236  0.86811688  0.83495742    -0.74400
C92         C  0.68777969  0.88992389  0.80015599     0.77400
C93         C  0.60034708  0.80145331  0.81508136     0.77800
C94         C  0.68807269  0.80149952  0.79886674     0.76800
C95         C  0.64804422  0.78022896  0.86641846     0.77200
C96         C  0.64835254  0.86820241  0.86834810     0.78300
C97         C  0.73523132  0.86961340  0.85234156     0.77400
N98         N  0.72171852  0.64904885  0.67676024    -0.03200
C99         C  0.71484663  0.65331102  0.69394848    -0.00700
C100        C  0.68959587  0.63465978  0.69803929    -0.23500
C101        C  0.68005638  0.61880530  0.68294923    -0.23700
C102        C  0.69972266  0.62809524  0.66996619    -0.00800
H103        H  0.67843995  0.63425520  0.70999081     0.13000
H104        H  0.66014136  0.60354900  0.68101533     0.13100
N105        N  0.73533999  0.05756873  0.65956700    -0.03200
C106        C  0.73212105  0.03535973  0.66728293    -0.00700
C107        C  0.71660452  0.01413172  0.65634616    -0.23500
C108        C  0.70953249  0.02304865  0.64149348    -0.23700
C109        C  0.72091042  0.04951151  0.64369742    -0.00800
H110        H  0.70967246  0.99403141  0.65953569     0.13000
H111        H  0.69593453  0.01123033  0.63083843     0.13100
N112        N  0.60515469  0.60742345  0.00284018    -0.03200
C113        C  0.61215220  0.62922096  0.99273254    -0.00700
C114        C  0.63496442  0.64987787  0.99924863    -0.23500
C115        C  0.64254527  0.64096176  0.01382157    -0.23700
C116        C  0.62418690  0.61508238  0.01581466    -0.00800
H117        H  0.64529267  0.66930066  0.99365548     0.13000
H118        H  0.65974207  0.65212822  0.02212883     0.13100
Zn119      Zn  0.96869846  0.48308004  0.51641023     1.49700
Zn120      Zn  0.02024840  0.53546304  0.50596425     1.49400
Zn121      Zn  0.01939603  0.48102216  0.50594819     1.49100
Zn122      Zn  0.98980962  0.49342480  0.47396856     1.49500
O123        O  0.99956411  0.49818870  0.50048404    -1.83900
O124        O  0.96689998  0.51024596  0.53226501    -0.74500
O125        O  0.05556635  0.54468795  0.51533848    -0.74300
O126        O  0.00186039  0.45339085  0.52605043    -0.73900
O127        O  0.00269381  0.54683567  0.52484518    -0.74500
O128        O  0.96690453  0.45525173  0.53333929    -0.74100
O129        O  0.05543549  0.50759475  0.51478171    -0.74700
O130        O  0.00336552  0.47255825  0.46080684    -0.74100
O131        O  0.02620638  0.55677377  0.48289503    -0.74900
O132        O  0.02384594  0.46416964  0.48273448    -0.74300
O133        O  0.00542491  0.52817341  0.46052052    -0.74700
O134        O  0.95048415  0.47448566  0.47131663    -0.74600
O135        O  0.93687223  0.46680784  0.50054930    -0.74400
C136        C  0.98156072  0.53470052  0.53395153     0.77400
C137        C  0.06699205  0.53194283  0.51776917     0.77800
C138        C  0.98123688  0.44550072  0.53560902     0.76800
C139        C  0.01670367  0.46259908  0.46592202     0.77200
C140        C  0.01945849  0.55157278  0.46599313     0.78300
C141        C  0.93218367  0.46502834  0.48324748     0.77400
Zn142      Zn  0.79845261  0.64611125  0.17315362     1.49700
Zn143      Zn  0.85205215  0.64577690  0.17235075     1.49400
Zn144      Zn  0.83832279  0.67251989  0.13864725     1.49100
Zn145      Zn  0.85232816  0.69824128  0.17946670     1.49500
O146        O  0.83524266  0.66555002  0.16571697    -1.83900
O147        O  0.78890649  0.61117100  0.18393462    -0.74500
O148        O  0.86756295  0.63907894  0.14948828    -0.74300
O149        O  0.80216136  0.65618958  0.12694398    -0.73900
O150        O  0.82555811  0.61055304  0.18264214    -0.74500
O151        O  0.77544403  0.63818642  0.15082193    -0.74100
O152        O  0.85771211  0.65646181  0.12613354    -0.74700
O153        O  0.86858211  0.72813902  0.16196426    -0.74100
O154        O  0.88101023  0.66491074  0.19139180    -0.74900
O155        O  0.85844161  0.71188406  0.13351661    -0.74300
O156        O  0.88070241  0.70127313  0.19614961    -0.74700
O157        O  0.82703816  0.70305438  0.19501020    -0.74600
O158        O  0.78945226  0.66654534  0.19140422    -0.74400
C159        C  0.80142942  0.59949704  0.18633261     0.77400
C160        C  0.86815605  0.64398839  0.13226333     0.77800
C161        C  0.77922967  0.64309224  0.13356548     0.76800
C162        C  0.86945166  0.73130673  0.14450888     0.77200
C163        C  0.89008279  0.68685436  0.19941183     0.78300
C164        C  0.80291395  0.68914145  0.19844279     0.77400
N165        N  0.65951983  0.72463518  0.32315860    -0.03200
C166        C  0.66830867  0.71842136  0.30766026    -0.00700
C167        C  0.65553072  0.69192587  0.30513538    -0.23500
C168        C  0.63832257  0.68116784  0.31940394    -0.23700
C169        C  0.64110433  0.70141005  0.33028678    -0.00800
H170        H  0.65922327  0.68151115  0.29443635     0.13000
H171        H  0.62605634  0.66067153  0.32213115     0.13100
N172        N  0.05185929  0.73557951  0.34309079    -0.03200
C173        C  0.02971383  0.73273638  0.33556967    -0.00700
C174        C  0.00845435  0.71662356  0.34633479    -0.23500
C175        C  0.01733119  0.70885650  0.36081707    -0.23700
C176        C  0.04378237  0.72041100  0.35858707    -0.00800
H177        H  0.98834377  0.70970295  0.34322804     0.13000
H178        H  0.00550663  0.69473747  0.37120295     0.13100
Zn179      Zn  0.47976754  0.97029129  0.48672244     1.49700
Zn180      Zn  0.53285977  0.02198613  0.49575490     1.49400
Zn181      Zn  0.47842633  0.02126677  0.49601966     1.49100
Zn182      Zn  0.49224894  0.99336596  0.52878379     1.49500
O183        O  0.49578661  0.00178002  0.50197083    -1.83900
O184        O  0.50597654  0.96756050  0.47047523    -0.74500
O185        O  0.54169106  0.05668872  0.48530486    -0.74300
O186        O  0.44964404  0.00288434  0.47667877    -0.73900
O187        O  0.54316818  0.00302804  0.47732305    -0.74500
O188        O  0.45060756  0.96716549  0.47054754    -0.74100
O189        O  0.50468421  0.05671491  0.48616135    -0.74700
O190        O  0.47131327  0.00720958  0.54172668    -0.74100
O191        O  0.55536672  0.02929766  0.51843249    -0.74900
O192        O  0.46257397  0.02672362  0.51922473    -0.74300
O193        O  0.52777107  0.00983317  0.54156285    -0.74700
O194        O  0.47404465  0.95404904  0.53226951    -0.74600
O195        O  0.46525981  0.93948103  0.50328840    -0.74400
C196        C  0.53044409  0.98163797  0.46857568     0.77400
C197        C  0.52888073  0.06800787  0.48267665     0.77800
C198        C  0.44089815  0.98147680  0.46795714     0.76800
C199        C  0.46119574  0.02025018  0.53618179     0.77200
C200        C  0.55095717  0.02342995  0.53552767     0.78300
C201        C  0.46458783  0.93537606  0.52061433     0.77400
Zn202      Zn  0.13088687  0.31252090  0.84333792     1.49700
Zn203      Zn  0.18585087  0.31491406  0.84088772     1.49400
Zn204      Zn  0.17062546  0.34285843  0.80967018     1.49100
Zn205      Zn  0.18332721  0.36560088  0.85112957     1.49500
O206        O  0.16760634  0.33385152  0.83620255    -1.83900
O207        O  0.12277709  0.27680253  0.85146408    -0.74500
O208        O  0.20115973  0.31013621  0.81710271    -0.74300
O209        O  0.13501360  0.32898449  0.79832650    -0.73900
O210        O  0.16073047  0.27875315  0.85050495    -0.74500
O211        O  0.10780761  0.30755601  0.82136523    -0.74100
O212        O  0.18939871  0.32794755  0.79526547    -0.74700
O213        O  0.19685931  0.39705028  0.83491417    -0.74100
O214        O  0.21544901  0.33427500  0.85924019    -0.74900
O215        O  0.19042115  0.38187769  0.80612514    -0.74300
O216        O  0.21356147  0.36944755  0.86577781    -0.74700
O217        O  0.15788775  0.36647144  0.86911093    -0.74600
O218        O  0.12130506  0.32936649  0.86423571    -0.74400
C219        C  0.13638358  0.26620549  0.85357306     0.77400
C220        C  0.20069788  0.31578648  0.80016235     0.77800
C221        C  0.11201496  0.31523514  0.80458866     0.76800
C222        C  0.19893129  0.40078263  0.81749100     0.77200
C223        C  0.22415620  0.35585412  0.86771050     0.78300
C224        C  0.13408573  0.35094227  0.87279695     0.77400
N225        N  0.31801095  0.26898386  0.65661155    -0.03200
C226        C  0.29793235  0.27109960  0.66344635    -0.00700
C227        C  0.29225537  0.28568963  0.65179452    -0.23500
C228        C  0.30935123  0.29318449  0.63738733    -0.23700
C229        C  0.32497682  0.28294046  0.64058272    -0.00800
H230        H  0.27834712  0.29178113  0.65420745     0.13000
H231        H  0.31135215  0.30620400  0.62633478     0.13100
N232        N  0.92706961  0.28472910  0.68331656    -0.03200
C233        C  0.93639134  0.29130092  0.70097758    -0.00700
C234        C  0.94256879  0.31632038  0.70505405    -0.23500
C235        C  0.93809557  0.32611135  0.68944340    -0.23700
C236        C  0.92914680  0.30678683  0.67621323    -0.00800
H237        H  0.95219018  0.32731132  0.71738328     0.13000
H238        H  0.94307180  0.34598861  0.68745413     0.13100
Zn239      Zn  0.34889796  0.14873537  0.17327555     1.49700
Zn240      Zn  0.35127030  0.20334095  0.17406426     1.49400
Zn241      Zn  0.32166508  0.16311720  0.14044339     1.49100
Zn242      Zn  0.29783175  0.15074480  0.18186466     1.49500
O243        O  0.32992598  0.16648344  0.16726454    -1.83900
O244        O  0.38441543  0.17374099  0.18397844    -0.74500
O245        O  0.35876733  0.22606379  0.15163538    -0.74300
O246        O  0.33577779  0.14243158  0.12735474    -0.73900
O247        O  0.38604844  0.21151849  0.18424765    -0.74500
O248        O  0.35478558  0.13343738  0.15005424    -0.74100
O249        O  0.33879532  0.19889004  0.12830742    -0.74700
O250        O  0.26696289  0.13747982  0.16512429    -0.74100
O251        O  0.33330123  0.21387056  0.19312383    -0.74900
O252        O  0.28229426  0.14500422  0.13635843    -0.74300
O253        O  0.29684842  0.17700327  0.19898516    -0.74700
O254        O  0.29298759  0.12017635  0.19708645    -0.74600
O255        O  0.32886837  0.11924887  0.19151441    -0.74400
C256        C  0.39656885  0.19803813  0.18722722     0.77400
C257        C  0.35290478  0.22190909  0.13453035     0.77800
C258        C  0.34872734  0.13228051  0.13303067     0.76800
C259        C  0.26326617  0.13616599  0.14770257     0.77200
C260        C  0.31180246  0.20121273  0.20172877     0.78300
C261        C  0.30694620  0.11006028  0.19954479     0.77400
N262        N  0.25761427  0.31326670  0.34310672    -0.03200
C263        C  0.25702795  0.29271989  0.33437629    -0.00700
C264        C  0.26907662  0.28286779  0.34497719    -0.23500
C265        C  0.27814297  0.29797684  0.36045775    -0.23700
C266        C  0.27135939  0.31666244  0.35894251    -0.00800
H267        H  0.27331150  0.26803384  0.34090419     0.13000
H268        H  0.29049040  0.29694637  0.37086488     0.13100
N269        N  0.27863587  0.92914867  0.32206111    -0.03200
C270        C  0.28555129  0.94205624  0.30557579    -0.00700
C271        C  0.31165796  0.95247332  0.30223157    -0.23500
C272        C  0.32149574  0.94632315  0.31705744    -0.23700
C273        C  0.30113803  0.93230933  0.32912452    -0.00800
H274        H  0.32273980  0.96496189  0.29085161     0.13000
H275        H  0.34174753  0.95309244  0.31944577     0.13100
N276        N  0.38872179  0.39794011  0.00565344    -0.03200
C277        C  0.36716398  0.39286083  0.99605328    -0.00700
C278        C  0.34538981  0.37170796  0.00334171    -0.23500
C279        C  0.35350101  0.36329781  0.01795296    -0.23700
C280        C  0.37998144  0.37954768  0.01913508    -0.00800
H281        H  0.32583546  0.36271152  0.99806124     0.13000
H282        H  0.34147704  0.34669290  0.02659346     0.13100
Zn283      Zn  0.15377129  0.84842830  0.81541790     1.49700
Zn284      Zn  0.20646983  0.84950530  0.82435248     1.49400
Zn285      Zn  0.16406966  0.83584253  0.85680632     1.49100
Zn286      Zn  0.15120496  0.79510686  0.82319951     1.49500
O287        O  0.16901210  0.83218184  0.83004779    -1.83900
O288        O  0.18063618  0.87847952  0.80025853    -0.74500
O289        O  0.22812838  0.86416006  0.84788342    -0.74300
O290        O  0.14411359  0.85489531  0.86103404    -0.73900
O291        O  0.21746316  0.87978149  0.80634940    -0.74500
O292        O  0.13770516  0.86294892  0.83219674    -0.74100
O293        O  0.19900059  0.85576375  0.86994731    -0.74700
O294        O  0.13603316  0.77237318  0.84599122    -0.74100
O295        O  0.21498944  0.82342611  0.81315793    -0.74900
O296        O  0.14420330  0.80024551  0.86896987    -0.74300
O297        O  0.17704146  0.78656836  0.81217746    -0.74700
O298        O  0.12191863  0.78513997  0.80447731    -0.74600
O299        O  0.12523787  0.82290043  0.79845975    -0.74400
C300        C  0.20502560  0.88891779  0.79817095     0.77400
C301        C  0.22252136  0.86536284  0.86480355     0.77800
C302        C  0.13507245  0.86442262  0.84957667     0.76800
C303        C  0.13473490  0.77704565  0.86309475     0.77200
C304        C  0.20142782  0.79929157  0.80933655     0.78300
C305        C  0.11428260  0.79853718  0.79583537     0.77400
N306        N  0.95017468  0.69381659  0.65063849    -0.03200
C307        C  0.95687049  0.68928344  0.63350332    -0.00700
C308        C  0.98233132  0.70742385  0.62950275    -0.23500
C309        C  0.99214188  0.72314278  0.64465703    -0.23700
C310        C  0.97239932  0.71427349  0.65756723    -0.00800
H311        H  0.99345202  0.70734087  0.61768325     0.13000
H312        H  0.01224513  0.73782514  0.64671684     0.13100
N313        N  0.35539258  0.08115258  0.67942309    -0.03200
C314        C  0.37522056  0.07969439  0.67140966    -0.00700
C315        C  0.38496819  0.06893883  0.68336425    -0.23500
C316        C  0.37052856  0.06295605  0.69919006    -0.23700
C317        C  0.35230795  0.07017001  0.69646369    -0.00800
H318        H  0.39952900  0.06391725  0.68028871     0.13000
H319        H  0.37150308  0.05208043  0.71075148     0.13100
N320        N  0.01712558  0.61207446  0.00531643    -0.03200
C321        C  0.00780798  0.62071493  0.01918325    -0.00700
C322        C  0.01970463  0.64735746  0.01885977    -0.23500
C323        C  0.03681307  0.65574539  0.00443052    -0.23700
C324        C  0.03491141  0.63400359  0.99627411    -0.00800
H325        H  0.01543634  0.65931891  0.02771472     0.13000
H326        H  0.04828648  0.67552198  0.99962469     0.13100
N327        N  0.38539871  0.98199610  0.01019824    -0.03200
C328        C  0.37757343  0.98725109  0.02663416    -0.00700
C329        C  0.35142569  0.97036151  0.02942414    -0.23500
C330        C  0.34244816  0.95453357  0.01427040    -0.23700
C331        C  0.36334146  0.96211759  0.00261338    -0.00800
H332        H  0.33963654  0.97115707  0.04050289     0.13000
H333        H  0.32241060  0.94039609  0.01135299     0.13100
C334        C  0.98289862  0.01017084  0.11524743     0.80400
N335        N  0.97066861  0.98385082  0.11506506    -0.77900
C336        C  0.98437653  0.97153462  0.11396024     0.82900
N337        N  0.01068310  0.98590342  0.11332085    -0.77800
C338        C  0.02329738  0.01224250  0.11366604     0.83000
N339        N  0.00921992  0.02419763  0.11448432    -0.79500
C340        C  0.65225098  0.34852132  0.45207238     0.80400
N341        N  0.67855874  0.36154270  0.45249843    -0.77900
C342        C  0.69161716  0.34855175  0.45266841     0.82900
N343        N  0.67805575  0.32222512  0.45248144    -0.77800
C344        C  0.65174208  0.30888221  0.45227253     0.83000
N345        N  0.63901886  0.32219937  0.45201528    -0.79500
C346        C  0.34840486  0.65511646  0.54573115     0.80400
N347        N  0.32216696  0.64229049  0.54471056    -0.77900
C348        C  0.30919359  0.65535592  0.54477015     0.82900
N349        N  0.32283843  0.68167118  0.54583562    -0.77800
C350        C  0.34915200  0.69485172  0.54678535     0.83000
N351        N  0.36173240  0.68139120  0.54674325    -0.79500
C352        C  0.01482684  0.98303004  0.88069773     0.80400
N353        N  0.02863735  0.00936665  0.88007492    -0.77900
C354        C  0.01659709  0.02333866  0.88088862     0.82900
N355        N  0.99034574  0.01063036  0.88222505    -0.77800
C356        C  0.97609592  0.98429943  0.88254906     0.83000
N357        N  0.98852285  0.97063436  0.88185707    -0.79500
C358        C  0.31908346  0.67849773  0.77739609     0.80400
N359        N  0.34544816  0.69189651  0.77791960    -0.77900
C360        C  0.35880405  0.67922245  0.77938475     0.82900
N361        N  0.34544526  0.65285866  0.77998845    -0.77800
C362        C  0.31913248  0.63920342  0.77921883     0.83000
N363        N  0.30620005  0.65222284  0.77800996    -0.79500
C364        C  0.67862690  0.31774860  0.21221732     0.80400
N365        N  0.69161689  0.34407659  0.21267118    -0.77900
C366        C  0.67866048  0.35716762  0.21309674     0.82900
N367        N  0.65233053  0.34357173  0.21314875    -0.77800
C368        C  0.63894141  0.31722104  0.21286138     0.83000
N369        N  0.65227049  0.30446865  0.21238747    -0.79500
C370        C  0.21906085  0.91236727  0.78623868    -0.03100
C371        C  0.24578164  0.92382661  0.78280284    -0.08900
C372        C  0.25892495  0.94613013  0.77183807    -0.16600
C373        C  0.24568050  0.95746777  0.76413383     0.25600
C374        C  0.21909968  0.94624363  0.76750448    -0.18200
C375        C  0.20590057  0.92390999  0.77843138    -0.07100
C376        C  0.25941240  0.98037627  0.75264616    -0.13600
C377        C  0.27213249  0.99918228  0.74294632    -0.13300
C378        C  0.28948380  0.02089202  0.73131906     0.25500
C379        C  0.28586899  0.01975218  0.71208072    -0.18700
C380        C  0.30528185  0.03830210  0.70051335    -0.07200
C381        C  0.32856132  0.05824366  0.70804435    -0.03300
C382        C  0.33118186  0.06033865  0.72742064    -0.08600
C383        C  0.31180219  0.04183506  0.73895803    -0.16200
H384        H  0.25656206  0.91556752  0.78858609     0.11900
H385        H  0.27947734  0.95453751  0.76935790     0.11200
H386        H  0.20854220  0.95472874  0.76167420     0.11200
H387        H  0.18537556  0.91575867  0.78083004     0.11700
H388        H  0.26884296  0.00357757  0.70592344     0.11700
H389        H  0.30316372  0.03558151  0.68565110     0.11700
H390        H  0.34922884  0.07501628  0.73354823     0.11900
H391        H  0.31502545  0.04294382  0.75376652     0.10700
C392        C  0.97801184  0.72220041  0.67735320    -0.03100
C393        C  0.99615105  0.74816313  0.68167078    -0.08900
C394        C  0.00753189  0.75504339  0.69919967    -0.16600
C395        C  0.00104741  0.73613269  0.71278309     0.25600
C396        C  0.98169985  0.71043470  0.70901660    -0.18200
C397        C  0.97013441  0.70351643  0.69141152    -0.07100
C398        C  0.01606137  0.74306894  0.72973349    -0.13600
C399        C  0.03106138  0.75086273  0.74263476    -0.13300
C400        C  0.05101162  0.76233488  0.75673016     0.25500
C401        C  0.05839849  0.74720194  0.76676360    -0.18700
C402        C  0.07882603  0.75881348  0.77955628    -0.07200
C403        C  0.09226009  0.78580880  0.78250910    -0.03300
C404        C  0.08441829  0.80074090  0.77252140    -0.08600
C405        C  0.06406691  0.78912451  0.75977188    -0.16200
H406        H  0.00267963  0.76293478  0.67108839     0.11900
H407        H  0.02238731  0.77497125  0.70184397     0.11200
H408        H  0.97646897  0.69554359  0.71935329     0.11200
H409        H  0.95656305  0.68332451  0.68837803     0.11700
H410        H  0.04858627  0.72646378  0.76454492     0.11700
H411        H  0.08420796  0.74668303  0.78702798     0.11700
H412        H  0.09417951  0.82152758  0.77441474     0.11900
H413        H  0.05872295  0.80114813  0.75209501     0.10700
C414        C  0.35939047  0.95317797  0.98307961    -0.03100
C415        C  0.34594403  0.92644812  0.97937505    -0.08900
C416        C  0.33425921  0.91689111  0.96214157    -0.16600
C417        C  0.33552570  0.93387309  0.94838120     0.25600
C418        C  0.35027585  0.96068907  0.95159162    -0.18200
C419        C  0.36226937  0.97030121  0.96881887    -0.07100
C420        C  0.31940171  0.92356885  0.93200751    -0.13600
C421        C  0.30389058  0.91398519  0.91947374    -0.13300
C422        C  0.28364696  0.90184549  0.90560242     0.25500
C423        C  0.25766874  0.89140299  0.91075914    -0.18700
C424        C  0.23790916  0.87963334  0.89754283    -0.07200
C425        C  0.24369250  0.87803894  0.87882076    -0.03300
C426        C  0.26987598  0.88854390  0.87374474    -0.08600
C427        C  0.28964201  0.90032332  0.88701725    -0.16200
H428        H  0.34299603  0.91287489  0.99027929     0.11900
H429        H  0.32290733  0.89614451  0.95996184     0.11200
H430        H  0.35131630  0.97410873  0.94117522     0.11200
H431        H  0.37186116  0.99092001  0.97152001     0.11700
H432        H  0.25264169  0.89235141  0.92505371     0.11700
H433        H  0.21805933  0.87176554  0.90202319     0.11700
H434        H  0.27511437  0.88765128  0.85950838     0.11900
H435        H  0.30959880  0.90823980  0.88276538     0.10700
C436        C  0.12228844  0.75509842  0.87645889    -0.03100
C437        C  0.11445089  0.72960084  0.87086145    -0.08900
C438        C  0.10333621  0.70910949  0.88359119    -0.16600
C439        C  0.09977740  0.71369399  0.90211450     0.25600
C440        C  0.10738813  0.73896323  0.90776120    -0.18200
C441        C  0.11856461  0.75946888  0.89509236    -0.07100
C442        C  0.08847002  0.69271282  0.91543717    -0.13600
C443        C  0.07927163  0.67658316  0.92759107    -0.13300
C444        C  0.06871288  0.65993161  0.94365694     0.25500
C445        C  0.08455544  0.66420944  0.95902766    -0.18700
C446        C  0.07363585  0.65241804  0.97600014    -0.07200
C447        C  0.04671746  0.63604954  0.97785152    -0.03300
C448        C  0.03116621  0.62990559  0.96199755    -0.08600
C449        C  0.04209672  0.64189448  0.94500030    -0.16200
H450        H  0.11710271  0.72549451  0.85666963     0.11900
H451        H  0.09759540  0.68971051  0.87898466     0.11200
H452        H  0.10476474  0.74286244  0.92202220     0.11200
H453        H  0.12432338  0.77877250  0.89992005     0.11700
H454        H  0.10511843  0.67815091  0.95828353     0.11700
H455        H  0.08591250  0.65799248  0.98812015     0.11700
H456        H  0.01030917  0.61803359  0.96319736     0.11900
H457        H  0.02953363  0.63848095  0.93329149     0.10700
C458        C  0.21427420  0.78541816  0.80200329    -0.03100
C459        C  0.24136332  0.79828567  0.79992570    -0.08900
C460        C  0.25351421  0.78469239  0.79432801    -0.16600
C461        C  0.23883762  0.75806745  0.79066743     0.25600
C462        C  0.21184560  0.74520061  0.79231017    -0.18200
C463        C  0.19964866  0.75873800  0.79790927    -0.07100
C464        C  0.25156960  0.74383244  0.78599107    -0.13600
C465        C  0.26268266  0.73213495  0.78292251    -0.13300
C466        C  0.27649515  0.71845737  0.78031481     0.25500
C467        C  0.26379342  0.69162535  0.78288719    -0.18700
C468        C  0.27752617  0.67859197  0.78151394    -0.07200
C469        C  0.30430650  0.69223103  0.77768058    -0.03300
C470        C  0.31679203  0.71912191  0.77474239    -0.08600
C471        C  0.30296454  0.73209893  0.77602580    -0.16200
H472        H  0.25323787  0.81875696  0.80298077     0.11900
H473        H  0.27441972  0.79488743  0.79315345     0.11200
H474        H  0.20023549  0.72460414  0.78955890     0.11200
H475        H  0.17878021  0.74817670  0.79935346     0.11700
H476        H  0.24334635  0.68081580  0.78625713     0.11700
H477        H  0.26723166  0.65789786  0.78388310     0.11700
H478        H  0.33729936  0.73019216  0.77164637     0.11900
H479        H  0.31303487  0.75286604  0.77398533     0.10700
C480        C  0.12109618  0.87752858  0.85616248    -0.03100
C481        C  0.11198951  0.88843403  0.84316645    -0.08900
C482        C  0.09851142  0.90054654  0.84886988    -0.16600
C483        C  0.09378425  0.90207056  0.86766658     0.25600
C484        C  0.10286695  0.89146213  0.88081046    -0.18200
C485        C  0.11646040  0.87926032  0.87510636    -0.07100
C486        C  0.07963737  0.91463600  0.87309842    -0.13600
C487        C  0.06791657  0.92580631  0.87588431    -0.13300
C488        C  0.05453824  0.94005499  0.87771071     0.25500
C489        C  0.06823401  0.96699603  0.87562462    -0.18700
C490        C  0.05535468  0.98090350  0.87668218    -0.07200
C491        C  0.02843088  0.96809527  0.87977953    -0.03300
C492        C  0.01479792  0.94097281  0.88189767    -0.08600
C493        C  0.02776917  0.92709115  0.88087326    -0.16200
H494        H  0.11520629  0.88759067  0.82847630     0.11900
H495        H  0.09170002  0.90870682  0.83855045     0.11200
H496        H  0.09940299  0.89256269  0.89543001     0.11200
H497        H  0.12321423  0.87112374  0.88546708     0.11700
H498        H  0.08890308  0.97728080  0.87304083     0.11700
H499        H  0.06652596  0.00170862  0.87492077     0.11700
H500        H  0.99410482  0.93044554  0.88431850     0.11900
H501        H  0.01687920  0.90623062  0.88241654     0.10700
C502        C  0.05212190  0.02773049  0.11409767    -0.03100
C503        C  0.06665836  0.01554188  0.11656352    -0.08900
C504        C  0.09369548  0.03018226  0.11787267    -0.16600
C505        C  0.10673384  0.05723341  0.11662738     0.25600
C506        C  0.09250375  0.06951741  0.11380769    -0.18200
C507        C  0.06543819  0.05492243  0.11256465    -0.07100
C508        C  0.13449970  0.07235613  0.11920477    -0.13600
C509        C  0.15742568  0.08458666  0.12263037    -0.13300
C510        C  0.18418426  0.09844875  0.12854467     0.25500
C511        C  0.20457559  0.10789090  0.11568792    -0.18700
C512        C  0.23038775  0.12051092  0.12177427    -0.07200
C513        C  0.23613455  0.12379394  0.14083190    -0.03300
C514        C  0.21545155  0.11456138  0.15356380    -0.08600
C515        C  0.18979973  0.10202973  0.14747192    -0.16200
H516        H  0.05713796  0.99469585  0.11784266     0.11900
H517        H  0.10440499  0.02039643  0.12014432     0.11200
H518        H  0.10229381  0.09042712  0.11285971     0.11200
H519        H  0.05494924  0.06498098  0.11058131     0.11700
H520        H  0.20053483  0.10529370  0.10098167     0.11700
H521        H  0.24578324  0.12741136  0.11159796     0.11700
H522        H  0.21903125  0.11677955  0.16832902     0.11900
H523        H  0.17428552  0.09489004  0.15758536     0.10700
C524        C  0.35723384  0.11900194  0.11969737    -0.03100
C525        C  0.35177292  0.11777659  0.10064628    -0.08900
C526        C  0.36012692  0.10540753  0.08824989    -0.16600
C527        C  0.37409684  0.09409231  0.09465736     0.25600
C528        C  0.37959106  0.09524296  0.11357413    -0.18200
C529        C  0.37128952  0.10757067  0.12596430    -0.07100
C530        C  0.38217754  0.08064993  0.08202502    -0.13600
C531        C  0.38791777  0.06815993  0.07189854    -0.13300
C532        C  0.39230352  0.05107226  0.06014565     0.25500
C533        C  0.39329709  0.03027011  0.06795622    -0.18700
C534        C  0.39228351  0.01075002  0.05661089    -0.07200
C535        C  0.39046809  0.01182873  0.03726905    -0.03300
C536        C  0.39168485  0.03383070  0.02944853    -0.08600
C537        C  0.39252327  0.05328474  0.04081200    -0.16200
H538        H  0.34105534  0.12636731  0.09531203     0.11900
H539        H  0.35559761  0.10459214  0.07367244     0.11200
H540        H  0.39023968  0.08649972  0.11879058     0.11200
H541        H  0.37589124  0.10810231  0.14049673     0.11700
H542        H  0.39301607  0.02817435  0.08286155     0.11700
H543        H  0.39051545  0.99363644  0.06300582     0.11700
H544        H  0.38934214  0.03468585  0.01465290     0.11900
H545        H  0.39157643  0.06912637  0.03453096     0.10700
C546        C  0.39500917  0.37501665  0.03312899    -0.03100
C547        C  0.39160782  0.37912691  0.05183694    -0.08900
C548        C  0.39471123  0.36476400  0.06574065    -0.16600
C549        C  0.40121829  0.34610120  0.06108252     0.25600
C550        C  0.40686295  0.34357835  0.04260664    -0.18200
C551        C  0.40370860  0.35791275  0.02869837    -0.07100
C552        C  0.39797247  0.32694504  0.07458158    -0.13600
C553        C  0.39213685  0.30933135  0.08527415    -0.13300
C554        C  0.38284693  0.28737942  0.09757806     0.25500
C555        C  0.38727721  0.29119122  0.11665161    -0.18700
C556        C  0.37749654  0.26993229  0.12862158    -0.07200
C557        C  0.36300094  0.24441833  0.12172598    -0.03300
C558        C  0.35862365  0.24077872  0.10252280    -0.08600
C559        C  0.36847628  0.26209370  0.09056837    -0.16200
H560        H  0.38396645  0.39146469  0.05551401     0.11900
H561        H  0.39002381  0.36675949  0.07992960     0.11200
H562        H  0.41164383  0.32904394  0.03875907     0.11200
H563        H  0.40539116  0.35360889  0.01435042     0.11700
H564        H  0.39818821  0.31061383  0.12230209     0.11700
H565        H  0.38124812  0.27351749  0.14330655     0.11700
H566        H  0.34761901  0.22146918  0.09672108     0.11900
H567        H  0.36475557  0.25884154  0.07584911     0.10700
C568        C  0.29752012  0.08716720  0.21193073    -0.03100
C569        C  0.31412776  0.07820881  0.21717822    -0.08900
C570        C  0.30541373  0.05683227  0.22893589    -0.16600
C571        C  0.27991298  0.04386360  0.23560847     0.25600
C572        C  0.26313355  0.05246985  0.23034313    -0.18200
C573        C  0.27185737  0.07396633  0.21863331    -0.07100
C574        C  0.27134965  0.02198246  0.24796476    -0.13600
C575        C  0.26640744  0.00421458  0.25833990    -0.13300
C576        C  0.26404771  0.98407900  0.27062565     0.25500
C577        C  0.26375646  0.98705130  0.28988692    -0.18700
C578        C  0.26713911  0.97058070  0.30175940    -0.07200
C579        C  0.27080244  0.95088995  0.29452709    -0.03300
C580        C  0.26908562  0.94681331  0.27527058    -0.08600
C581        C  0.26567371  0.96323944  0.26341664    -0.16200
H582        H  0.33397027  0.08785338  0.21231953     0.11900
H583        H  0.31865022  0.05045508  0.23287601     0.11200
H584        H  0.24334193  0.04264268  0.23533649     0.11200
H585        H  0.25848578  0.08020200  0.21479257     0.11700
H586        H  0.26279546  0.00321048  0.29569825     0.11700
H587        H  0.26946527  0.97484205  0.31645470     0.11700
H588        H  0.27275357  0.93238922  0.26931614     0.11900
H589        H  0.26617705  0.96078656  0.24857609     0.10700
C590        C  0.30366932  0.21485141  0.21492799    -0.03100
C591        C  0.28052449  0.20086477  0.22510424    -0.08900
C592        C  0.27227282  0.21361192  0.23708980    -0.16600
C593        C  0.28691237  0.24055317  0.23911947     0.25600
C594        C  0.31008795  0.25468663  0.22917135    -0.18200
C595        C  0.31842732  0.24194865  0.21715902    -0.07100
C596        C  0.27839472  0.25333589  0.25189586    -0.13600
C597        C  0.27101695  0.26249456  0.26368285    -0.13300
C598        C  0.26295455  0.27156405  0.27948237     0.25500
C599        C  0.27705692  0.29768257  0.28477314    -0.18700
C600        C  0.27265105  0.30541069  0.30208718    -0.07200
C601        C  0.25411863  0.28708378  0.31429373    -0.03300
C602        C  0.23878027  0.26129786  0.30833067    -0.08600
C603        C  0.24310379  0.25361218  0.29100248    -0.16200
H604        H  0.26869289  0.18001882  0.22378248     0.11900
H605        H  0.25442977  0.20240402  0.24480928     0.11200
H606        H  0.32172049  0.27552952  0.23070601     0.11200
H607        H  0.33630973  0.25332708  0.20953594     0.11700
H608        H  0.29262101  0.31174196  0.27609230     0.11700
H609        H  0.28528443  0.32519926  0.30663113     0.11700
H610        H  0.22495815  0.24672064  0.31771514     0.11900
H611        H  0.23217654  0.23332353  0.28716449     0.10700
C612        C  0.61009954  0.30261663  0.21248403    -0.03100
C613        C  0.59634410  0.31583910  0.21178035    -0.08900
C614        C  0.56925941  0.30215750  0.21096082    -0.16600
C615        C  0.55539827  0.27504037  0.21087815     0.25600
C616        C  0.56885403  0.26168744  0.21176661    -0.18200
C617        C  0.59596436  0.27532839  0.21256687    -0.07100
C618        C  0.52748002  0.26100817  0.20931175    -0.13600
C619        C  0.50424264  0.24961254  0.20725201    -0.13300
C620        C  0.47670673  0.23643561  0.20370990     0.25500
C621        C  0.46226070  0.20938896  0.20220310    -0.18700
C622        C  0.43600803  0.19678943  0.19738281    -0.07200
C623        C  0.42376616  0.21107475  0.19397257    -0.03300
C624        C  0.43828341  0.23819893  0.19606406    -0.08600
C625        C  0.46451986  0.25074058  0.20085460    -0.16200
H626        H  0.60648654  0.33679627  0.21168689     0.11900
H627        H  0.55913603  0.31276265  0.21022796     0.11200
H628        H  0.55840227  0.24070845  0.21167741     0.11200
H629        H  0.60582541  0.26446971  0.21313136     0.11700
H630        H  0.47141616  0.19805780  0.20437335     0.11700
H631        H  0.42545872  0.17591148  0.19594198     0.11700
H632        H  0.42955101  0.24983551  0.19355479     0.11900
H633        H  0.47543418  0.27166938  0.20195373     0.10700
C634        C  0.32351235  0.24880496  0.66138853    -0.03100
C635        C  0.34873510  0.25282869  0.66044109    -0.08900
C636        C  0.35308924  0.23215343  0.66316154    -0.16600
C637        C  0.33232324  0.20711385  0.66686177     0.25600
C638        C  0.30730816  0.20316035  0.66824223    -0.18200
C639        C  0.30295334  0.22371646  0.66554396    -0.07100
C640        C  0.33629657  0.18526266  0.66876888    -0.13600
C641        C  0.33885416  0.16651730  0.67013705    -0.13300
C642        C  0.34248582  0.14441072  0.67170209     0.25500
C643        C  0.32138918  0.11926806  0.67462667    -0.18700
C644        C  0.32530222  0.09818491  0.67666285    -0.07200
C645        C  0.35037296  0.10190427  0.67563558    -0.03300
C646        C  0.37131282  0.12715994  0.67242516    -0.08600
C647        C  0.36741549  0.14812089  0.67051304    -0.16200
H648        H  0.36505445  0.27182497  0.65752126     0.11900
H649        H  0.37261410  0.23564457  0.66212729     0.11200
H650        H  0.29100736  0.18400437  0.67104360     0.11200
H651        H  0.28324813  0.21975405  0.66603733     0.11700
H652        H  0.30193960  0.11599564  0.67554460     0.11700
H653        H  0.30880743  0.07910141  0.67911569     0.11700
H654        H  0.39091614  0.13081849  0.67194471     0.11900
H655        H  0.38396781  0.16733801  0.66833986     0.10700
C656        C  0.12349809  0.23850830  0.85916584    -0.03100
C657        C  0.09643759  0.22375857  0.86150311    -0.08900
C658        C  0.08412751  0.19730336  0.86563487    -0.16600
C659        C  0.09860071  0.18511627  0.86754181     0.25600
C660        C  0.12556400  0.19969546  0.86554660    -0.18200
C661        C  0.13792934  0.22616360  0.86139883    -0.07100
C662        C  0.08568689  0.15757328  0.87105099    -0.13600
C663        C  0.07438475  0.13440900  0.87352738    -0.13300
C664        C  0.06021341  0.10661099  0.87599991     0.25500
C665        C  0.07210547  0.09213179  0.87241282    -0.18700
C666        C  0.05808155  0.06511581  0.87425316    -0.07200
C667        C  0.03183083  0.05210379  0.87959863    -0.03300
C668        C  0.02014241  0.06687216  0.88334813    -0.08600
C669        C  0.03423920  0.09387752  0.88159142    -0.16200
H670        H  0.08469027  0.23254920  0.85984762     0.11900
H671        H  0.06325594  0.18628047  0.86711925     0.11200
H672        H  0.13702186  0.19054171  0.86697133     0.11200
H673        H  0.15875816  0.23686141  0.85968187     0.11700
H674        H  0.09216899  0.10169791  0.86803688     0.11700
H675        H  0.06770746  0.05441118  0.87120482     0.11700
H676        H  0.00005070  0.05756929  0.88759078     0.11900
H677        H  0.02478262  0.10481129  0.88443406     0.10700
C678        C  0.94891340  0.27987462  0.71191033    -0.03100
C679        C  0.94574473  0.27819759  0.73126361    -0.08900
C680        C  0.96405625  0.27723938  0.74264459    -0.13000
C681        C  0.98584565  0.27800871  0.73485085     0.25600
C682        C  0.98817901  0.27784870  0.71552819    -0.18200
C683        C  0.96984964  0.27880097  0.70412702    -0.07100
C684        C  0.00697699  0.28179227  0.74660842    -0.13600
C685        C  0.02517405  0.28681049  0.75651863    -0.13300
C686        C  0.04708141  0.29385140  0.76849406     0.25500
C687        C  0.07162629  0.31475817  0.76398350    -0.18700
C688        C  0.09279079  0.32168020  0.77564831    -0.07200
C689        C  0.08967331  0.30794037  0.79212980    -0.03300
C690        C  0.06492179  0.28709284  0.79660867    -0.08600
C691        C  0.04385197  0.28006217  0.78484857    -0.16200
H692        H  0.93023230  0.27978039  0.73761841     0.11900
H693        H  0.96202497  0.27750554  0.75754728     0.11200
H694        H  0.00499163  0.27861103  0.70928712     0.11200
H695        H  0.97323971  0.28097870  0.68932372     0.11700
H696        H  0.07441413  0.32573137  0.75144683     0.11700
H697        H  0.11153195  0.33793551  0.77186363     0.11700
H698        H  0.06187946  0.27604812  0.80913845     0.11900
H699        H  0.02500743  0.26388600  0.78854900     0.10700
C700        C  0.21338962  0.30783537  0.78593008    -0.03100
C701        C  0.21091206  0.31120617  0.76691805    -0.08900
C702        C  0.22241804  0.30316651  0.75358057    -0.16600
C703        C  0.23666851  0.29169984  0.75897672     0.25600
C704        C  0.23941915  0.28846642  0.77785136    -0.18200
C705        C  0.22787187  0.29641578  0.79121058    -0.07100
C706        C  0.24823834  0.28313569  0.74512209    -0.13600
C707        C  0.25728737  0.27638097  0.73279952    -0.13300
C708        C  0.26696434  0.26956540  0.71663620     0.25500
C709        C  0.29332455  0.27767066  0.71487011    -0.18700
C710        C  0.30325121  0.27513265  0.69783641    -0.07200
C711        C  0.28691706  0.26473754  0.68240058    -0.03300
C712        C  0.26022862  0.25480072  0.68472358    -0.08600
C713        C  0.25033802  0.25717465  0.70170219    -0.16200
H714        H  0.19989616  0.31985810  0.76232578     0.11900
H715        H  0.22010098  0.30580895  0.73903379     0.11200
H716        H  0.25040257  0.27968403  0.78226055     0.11200
H717        H  0.23026415  0.29356306  0.80569299     0.11700
H718        H  0.30645170  0.28735338  0.72628518     0.11700
H719        H  0.32394735  0.28344147  0.69628306     0.11700
H720        H  0.24732801  0.24703669  0.67295847     0.11900
H721        H  0.22995038  0.25081237  0.70281324     0.10700
C722        C  0.36594945  0.40405378  0.97823008    -0.03100
C723        C  0.37291862  0.39617645  0.96195560    -0.08900
C724        C  0.36210764  0.39677640  0.94492916    -0.16600
C725        C  0.34448262  0.40550815  0.94406059     0.25600
C726        C  0.33945886  0.41564210  0.95998538    -0.18200
C727        C  0.35003674  0.41481137  0.97698512    -0.07100
C728        C  0.32849574  0.40038989  0.92788845    -0.13600
C729        C  0.31234590  0.39389417  0.91589520    -0.13300
C730        C  0.29095997  0.38480615  0.90313130     0.25500
C731        C  0.28196673  0.36143655  0.89349892    -0.18700
C732        C  0.26024898  0.35192198  0.88197264    -0.07200
C733        C  0.24716232  0.36565205  0.87994485    -0.03300
C734        C  0.25645442  0.38917245  0.88964280    -0.08600
C735        C  0.27811792  0.39861166  0.90114005    -0.16200
H736        H  0.38449827  0.38707952  0.96270810     0.11900
H737        H  0.36598789  0.38866003  0.93276016     0.11200
H738        H  0.32574796  0.42228640  0.95956067     0.11200
H739        H  0.34389775  0.42034303  0.98943874     0.11700
H740        H  0.29158339  0.35043096  0.89503707     0.11700
H741        H  0.25367527  0.33380387  0.87470874     0.11700
H742        H  0.24690821  0.40027912  0.88843814     0.11900
H743        H  0.28469328  0.41658026  0.90863220     0.10700
C744        C  0.30448408  0.61047709  0.78066632    -0.03100
C745        C  0.31746661  0.59652430  0.78162171    -0.08900
C746        C  0.30353622  0.56955090  0.78360418    -0.16600
C747        C  0.27646687  0.55612073  0.78464917     0.25600
C748        C  0.26336519  0.56976448  0.78348709    -0.18200
C749        C  0.27721947  0.59669718  0.78147755    -0.07100
C750        C  0.26220204  0.52855189  0.78780377    -0.13600
C751        C  0.25036760  0.50579554  0.79160131    -0.13300
C752        C  0.23666290  0.47922943  0.79770416     0.25500
C753        C  0.22838291  0.47361579  0.81612224    -0.18700
C754        C  0.21599369  0.44810032  0.82247913    -0.07200
C755        C  0.21153890  0.42770759  0.81046528    -0.03300
C756        C  0.21954545  0.43343854  0.79187125    -0.08600
C757        C  0.23212248  0.45907392  0.78555911    -0.16200
H758        H  0.33839126  0.60643891  0.78101578     0.11900
H759        H  0.31390642  0.55921153  0.78456560     0.11200
H760        H  0.24243264  0.55962303  0.78437471     0.11200
H761        H  0.26652801  0.60672217  0.78080671     0.11700
H762        H  0.23173524  0.48902358  0.82564470     0.11700
H763        H  0.20992333  0.44435652  0.83683354     0.11700
H764        H  0.21645053  0.41818686  0.78229556     0.11900
H765        H  0.23848510  0.46318387  0.77127254     0.10700
C766        C  0.54261599  0.09513332  0.47594576    -0.03100
C767        C  0.52909735  0.10822194  0.47282749    -0.08900
C768        C  0.54239285  0.13433398  0.46768584    -0.16600
C769        C  0.56933691  0.14771548  0.46557759     0.25600
C770        C  0.58288575  0.13474319  0.46829055    -0.18200
C771        C  0.56965040  0.10864483  0.47340466    -0.07100
C772        C  0.58321274  0.17498485  0.46139634    -0.13600
C773        C  0.59503960  0.19803313  0.45868213    -0.13300
C774        C  0.60921650  0.22573018  0.45629727     0.25500
C775        C  0.63624590  0.23919587  0.45494229    -0.18700
C776        C  0.65008738  0.26620066  0.45339688    -0.07200
C777        C  0.63705623  0.28015083  0.45320480    -0.03300
C778        C  0.60983332  0.26636073  0.45434279    -0.08600
C779        C  0.59605492  0.23936861  0.45590335    -0.16200
H780        H  0.50830687  0.09842802  0.47465604     0.11900
H781        H  0.53170274  0.14419094  0.46565112     0.11200
H782        H  0.60374744  0.14491316  0.46674465     0.11200
H783        H  0.58067803  0.09921165  0.47571781     0.11700
H784        H  0.64665116  0.22884739  0.45527000     0.11700
H785        H  0.67099674  0.27613067  0.45252250     0.11700
H786        H  0.59914090  0.27641024  0.45424840     0.11900
H787        H  0.57513876  0.22915993  0.45699287     0.10700
C788        C  0.44783286  0.02842955  0.54968495    -0.03100
C789        C  0.43735694  0.04357871  0.54390310    -0.08900
C790        C  0.42546486  0.05197777  0.55663195    -0.16600
C791        C  0.42375974  0.04538401  0.57536627     0.25600
C792        C  0.43392155  0.03014056  0.58123644    -0.18200
C793        C  0.44584851  0.02172720  0.56853176    -0.07100
C794        C  0.41232089  0.05481403  0.58868018    -0.13600
C795        C  0.40398038  0.06278932  0.60069097    -0.13300
C796        C  0.39611969  0.07186984  0.61665577     0.25500
C797        C  0.41503825  0.08937245  0.62890171    -0.18700
C798        C  0.40792767  0.09448508  0.64616692    -0.07200
C799        C  0.38175928  0.08230898  0.65142759    -0.03300
C800        C  0.36270036  0.06654901  0.63848110    -0.08600
C801        C  0.36986139  0.06121091  0.62120227    -0.16200
H802        H  0.43854370  0.04917442  0.52953946     0.11900
H803        H  0.41779482  0.06381152  0.55186804     0.11200
H804        H  0.43283189  0.02492986  0.59569280     0.11200
H805        H  0.45368737  0.01014770  0.57350451     0.11700
H806        H  0.43538934  0.09775696  0.62562785     0.11700
H807        H  0.42294478  0.10635358  0.65602314     0.11700
H808        H  0.34243990  0.05645486  0.64238435     0.11900
H809        H  0.35498257  0.04755891  0.61191448     0.10700
C810        C  0.30599945  0.92777048  0.34852906    -0.03100
C811        C  0.32414524  0.92004010  0.35180452    -0.08900
C812        C  0.33572711  0.92365229  0.36918430    -0.16600
C813        C  0.32947237  0.93512327  0.38365718     0.25600
C814        C  0.31004645  0.94123218  0.38089440    -0.18200
C815        C  0.29826882  0.93745341  0.36344182    -0.07100
C816        C  0.34473134  0.94252544  0.40054445    -0.13600
C817        C  0.35962723  0.94921340  0.41350788    -0.13300
C818        C  0.37906951  0.95702447  0.42792909     0.25500
C819        C  0.39006276  0.98154648  0.43627856    -0.18700
C820        C  0.40987340  0.98944059  0.44946487    -0.07200
C821        C  0.41918485  0.97298802  0.45446453    -0.03300
C822        C  0.40776603  0.94829042  0.44615321    -0.08600
C823        C  0.38795007  0.94042718  0.43305752    -0.16200
H824        H  0.33068363  0.91282319  0.34051447     0.11900
H825        H  0.35062693  0.91877056  0.37102664     0.11200
H826        H  0.30496739  0.95014933  0.39191511     0.11200
H827        H  0.28478517  0.94409899  0.36120993     0.11700
H828        H  0.38355314  0.99471183  0.43243730     0.11700
H829        H  0.41815351  0.00856605  0.45553378     0.11700
H830        H  0.41427750  0.93502806  0.44966476     0.11900
H831        H  0.37977646  0.92145067  0.42673538     0.10700
C832        C  0.45289811  0.90816277  0.52692248    -0.03100
C833        C  0.44540282  0.88824940  0.51372167    -0.08900
C834        C  0.43442087  0.86251320  0.51922274    -0.16600
C835        C  0.43063568  0.85609108  0.53799703     0.25600
C836        C  0.43819777  0.87569788  0.55133081    -0.18200
C837        C  0.44934683  0.90163756  0.54583679    -0.07100
C838        C  0.41825669  0.82920965  0.54320814    -0.13600
C839        C  0.40694213  0.80611599  0.54573460    -0.13300
C840        C  0.39254320  0.77825747  0.54704163     0.25500
C841        C  0.36545434  0.76490496  0.54734676    -0.18700
C842        C  0.35131642  0.73781098  0.54747706    -0.07200
C843        C  0.36409627  0.72362718  0.54726832    -0.03300
C844        C  0.39137828  0.73726968  0.54718655    -0.08600
C845        C  0.40546276  0.76436827  0.54703558    -0.16200
H846        H  0.44801440  0.89250413  0.49904906     0.11900
H847        H  0.42867609  0.84755308  0.50877592     0.11200
H848        H  0.43532570  0.87093368  0.56592655     0.11200
H849        H  0.45499257  0.91649484  0.55633217     0.11700
H850        H  0.35523242  0.77544199  0.54723635     0.11700
H851        H  0.33038337  0.72801074  0.54755704     0.11700
H852        H  0.40189899  0.72704430  0.54701001     0.11900
H853        H  0.42642037  0.77446931  0.54667206     0.10700
C854        C  0.25291341  0.90785601  0.32650898    -0.03100
C855        C  0.24905248  0.88298630  0.32974220    -0.08900
C856        C  0.22407888  0.86143401  0.33184148    -0.16600
C857        C  0.20233135  0.86420026  0.33082599     0.25600
C858        C  0.20597315  0.88898547  0.32802487    -0.18200
C859        C  0.23102631  0.91061358  0.32584974    -0.07100
C860        C  0.17643400  0.84155212  0.33234080    -0.13600
C861        C  0.15491447  0.82247068  0.33351467    -0.13300
C862        C  0.12891033  0.79998799  0.33502646     0.25500
C863        C  0.10732813  0.80274626  0.33261019    -0.18700
C864        C  0.08221217  0.78143691  0.33471592    -0.07200
C865        C  0.07797706  0.75673147  0.33924085    -0.03300
C866        C  0.09977273  0.75399720  0.34130397    -0.08600
C867        C  0.12497586  0.77541862  0.33922948    -0.16200
H868        H  0.26540096  0.88006171  0.32997772     0.11900
H869        H  0.22173263  0.84249755  0.33394567     0.11200
H870        H  0.18941927  0.89156147  0.32727636     0.11200
H871        H  0.23321087  0.92938457  0.32353870     0.11700
H872        H  0.10989873  0.82152948  0.32940507     0.11700
H873        H  0.06604580  0.78451414  0.33339792     0.11700
H874        H  0.09747500  0.73540507  0.34451090     0.11900
H875        H  0.14140548  0.77284000  0.34107303     0.10700
C876        C  0.88351044  0.75834735  0.13732983    -0.03100
C877        C  0.88410862  0.76392879  0.11834568    -0.08900
C878        C  0.89689661  0.78974918  0.11217285    -0.16600
C879        C  0.90926236  0.81025315  0.12488197     0.25600
C880        C  0.90897283  0.80476820  0.14369210    -0.18200
C881        C  0.89627749  0.77917395  0.14985718    -0.07100
C882        C  0.92188408  0.83703943  0.11908156    -0.13600
C883        C  0.93258029  0.86011052  0.11626033    -0.13300
C884        C  0.94532137  0.88800802  0.11470346     0.25500
C885        C  0.97172776  0.90270584  0.11035879    -0.18700
C886        C  0.98438346  0.92981336  0.10997949    -0.07200
C887        C  0.97080792  0.94271244  0.11390854    -0.03300
C888        C  0.94418454  0.92774354  0.11802170    -0.08600
C889        C  0.93160843  0.90065212  0.11847447    -0.16200
H890        H  0.87451139  0.74841531  0.10833357     0.11900
H891        H  0.89695366  0.79370103  0.09754896     0.11200
H892        H  0.91842284  0.82035664  0.15368793     0.11200
H893        H  0.89635488  0.77576046  0.16455955     0.11700
H894        H  0.98263574  0.89323134  0.10749128     0.11700
H895        H  0.00483673  0.94065424  0.10667997     0.11700
H896        H  0.93311133  0.93695011  0.12117920     0.11900
H897        H  0.91122331  0.88957219  0.12199548     0.10700
C898        C  0.88124936  0.63485460  0.11922628    -0.03100
C899        C  0.88190004  0.63919496  0.10002688    -0.08900
C900        C  0.89438821  0.63063943  0.08792019    -0.16600
C901        C  0.90643153  0.61757172  0.09474055     0.25600
C902        C  0.90576609  0.61306512  0.11380182    -0.18200
C903        C  0.89329174  0.62157057  0.12591947    -0.07100
C904        C  0.92012256  0.60954591  0.08228401    -0.13600
C905        C  0.93250491  0.60428184  0.07166334    -0.13300
C906        C  0.94884059  0.60090717  0.05842927     0.25500
C907        C  0.97237417  0.60352978  0.06408464    -0.18700
C908        C  0.99072372  0.60596911  0.05088929    -0.07200
C909        C  0.98573560  0.60567632  0.03187091    -0.03300
C910        C  0.96122568  0.60077021  0.02632907    -0.08600
C911        C  0.94292243  0.59842152  0.03950581    -0.16200
H912        H  0.87283387  0.64927666  0.09435041     0.11900
H913        H  0.89478641  0.63437844  0.07322665     0.11200
H914        H  0.91504447  0.60310004  0.11934153     0.11200
H915        H  0.89320630  0.61782512  0.14057785     0.11700
H916        H  0.97735593  0.60564066  0.07863902     0.11700
H917        H  0.00977076  0.61067830  0.05551435     0.11700
H918        H  0.95727387  0.60147775  0.01179065     0.11900
H919        H  0.92493870  0.59659129  0.03486198     0.10700
C920        C  0.79042701  0.69978444  0.21062852    -0.03100
C921        C  0.80480983  0.72536308  0.21743018    -0.08900
C922        C  0.79315135  0.73563144  0.22871032    -0.16600
C923        C  0.76692400  0.72056821  0.23341330     0.25600
C924        C  0.75241927  0.69513168  0.22667904    -0.18200
C925        C  0.76403008  0.68481969  0.21536158    -0.07100
C926        C  0.75497888  0.73085128  0.24549889    -0.13600
C927        C  0.74381649  0.73757775  0.25609917    -0.13300
C928        C  0.72812555  0.74170950  0.26937050     0.25500
C929        C  0.70486968  0.73966139  0.26372423    -0.18700
C930        C  0.68630025  0.73654785  0.27689767    -0.07200
C931        C  0.69074678  0.73538585  0.29585826    -0.03300
C932        C  0.71520648  0.74027415  0.30148514    -0.08600
C933        C  0.73378403  0.74337406  0.28830864    -0.16200
H934        H  0.82512502  0.73752065  0.21401804     0.11900
H935        H  0.80464620  0.75530029  0.23382274     0.11200
H936        H  0.73211470  0.68320170  0.23023863     0.11200
H937        H  0.75234999  0.66512717  0.21035909     0.11700
H938        H  0.70011826  0.73817125  0.24914678     0.11700
H939        H  0.66732801  0.73199005  0.27219687     0.11700
H940        H  0.71877005  0.73852952  0.31594656     0.11900
H941        H  0.75159076  0.74476130  0.29290713     0.10700
C942        C  0.91200837  0.69604600  0.21271805    -0.03100
C943        C  0.92251705  0.72056996  0.22119214    -0.08900
C944        C  0.94298979  0.72934223  0.23379118    -0.16600
C945        C  0.95344439  0.71385608  0.23818776     0.25600
C946        C  0.94325477  0.68947789  0.22976147    -0.18200
C947        C  0.92274667  0.68064726  0.21711027    -0.07100
C948        C  0.97366017  0.72252898  0.25201671    -0.13600
C949        C  0.98898331  0.72941105  0.26467534    -0.13300
C950        C  0.00422228  0.73616338  0.28148051     0.25500
C951        C  0.02390727  0.73029719  0.28362936    -0.18700
C952        C  0.03497744  0.73231865  0.30112888    -0.07200
C953        C  0.02622980  0.73996507  0.31663245    -0.03300
C954        C  0.00810791  0.74788075  0.31399879    -0.08600
C955        C  0.99720673  0.74598775  0.29658837    -0.16200
H956        H  0.91484098  0.73300939  0.21816376     0.11900
H957        H  0.95049895  0.74815347  0.24025551     0.11200
H958        H  0.95099127  0.67717092  0.23309948     0.11200
H959        H  0.91520197  0.66170944  0.21087060     0.11700
H960        H  0.02954432  0.72264735  0.27208092     0.11700
H961        H  0.04853210  0.72564974  0.30285026     0.11700
H962        H  0.00085686  0.75358783  0.32575700     0.11900
H963        H  0.98206553  0.75062184  0.29519806     0.10700
C964        C  0.78745972  0.57217427  0.19284174    -0.03100
C965        C  0.80096526  0.55915737  0.19634500    -0.08900
C966        C  0.78759931  0.53285132  0.20103862    -0.16600
C967        C  0.76054229  0.51910090  0.20229363     0.25600
C968        C  0.74696184  0.53198116  0.19918318    -0.18200
C969        C  0.76028389  0.55830413  0.19453507    -0.07100
C970        C  0.74668037  0.49161419  0.20604475    -0.13600
C971        C  0.73495450  0.46844174  0.20844422    -0.13300
C972        C  0.72075767  0.44059745  0.21046219     0.25500
C973        C  0.69376150  0.42664879  0.20877915    -0.18700
C974        C  0.68002860  0.39958137  0.20992895    -0.07200
C975        C  0.69311673  0.38597590  0.21268144    -0.03300
C976        C  0.72024663  0.40020738  0.21460828    -0.08600
C977        C  0.73392369  0.42728900  0.21352044    -0.16200
H978        H  0.82185084  0.56917899  0.19515306     0.11900
H979        H  0.79836060  0.52313524  0.20338243     0.11200
H980        H  0.72602270  0.52157504  0.20005019     0.11200
H981        H  0.74923608  0.56762276  0.19184841     0.11700
H982        H  0.68332537  0.43668177  0.20636691     0.11700
H983        H  0.65919603  0.38931921  0.20835797     0.11700
H984        H  0.73096565  0.39043352  0.21683286     0.11900
H985        H  0.75480739  0.43782374  0.21485198     0.10700
C986        C  0.09450805  0.54592498  0.52367846    -0.03100
C987        C  0.10791059  0.53259531  0.52622781    -0.08900
C988        C  0.13429086  0.54611286  0.53063731    -0.16600
C989        C  0.14764509  0.57310320  0.53257534     0.25600
C990        C  0.13437958  0.58646258  0.53040876    -0.18200
C991        C  0.10802569  0.57301046  0.52601804    -0.07100
C992        C  0.17512001  0.58721593  0.53608656    -0.13600
C993        C  0.19827486  0.59920286  0.53833808    -0.13300
C994        C  0.22605050  0.61333582  0.54033900     0.25500
C995        C  0.23952799  0.64021465  0.54299059    -0.18700
C996        C  0.26655610  0.65394679  0.54448112    -0.07200
C997        C  0.28049693  0.64094334  0.54335856    -0.03300
C998        C  0.26670225  0.61388992  0.54076397    -0.08600
C999        C  0.23972466  0.60024229  0.53924865    -0.16200
H1000       H  0.09813541  0.51177657  0.52452456     0.11900
H1001       H  0.14435262  0.53555016  0.53225648     0.11200
H1002       H  0.14449924  0.60734737  0.53183824     0.11200
H1003       H  0.09836617  0.58390798  0.52413543     0.11700
H1004       H  0.22916064  0.65058254  0.54381667     0.11700
H1005       H  0.27649645  0.67472094  0.54648971     0.11700
H1006       H  0.27672903  0.60320919  0.53978849     0.11900
H1007       H  0.22953756  0.57946405  0.53713546     0.10700
C1008       C  0.05798970  0.71101691  0.36966021    -0.03100
C1009       C  0.05835512  0.71376612  0.38901968    -0.08900
C1010       C  0.06042560  0.69622181  0.40056375    -0.16600
C1011       C  0.06208488  0.67561054  0.39292480     0.25600
C1012       C  0.06379904  0.67397051  0.37364878    -0.18200
C1013       C  0.06170662  0.69152334  0.36209230    -0.07100
C1014       C  0.05860145  0.65455250  0.40467578    -0.13600
C1015       C  0.05330012  0.63644417  0.41478891    -0.13300
C1016       C  0.04539822  0.61501235  0.42745828     0.25500
C1017       C  0.03319362  0.58941239  0.42093123    -0.18700
C1018       C  0.02467168  0.56871136  0.43338350    -0.07200
C1019       C  0.02828504  0.57330973  0.45258824    -0.03300
C1020       C  0.04068360  0.59911277  0.45896235    -0.08600
C1021       C  0.04906913  0.61971097  0.44652396    -0.16200
H1022       H  0.05451933  0.72795790  0.39519642     0.11900
H1023       H  0.05886259  0.69766498  0.41542135     0.11200
H1024       H  0.06486316  0.65804041  0.36750573     0.11200
H1025       H  0.06037914  0.68827944  0.34726591     0.11700
H1026       H  0.03010100  0.58542810  0.40622611     0.11700
H1027       H  0.01531318  0.54914151  0.42797842     0.11700
H1028       H  0.04375642  0.60342928  0.47362259     0.11900
H1029       H  0.05829570  0.63934622  0.45181665     0.10700
C1030       C  0.97372730  0.42468489  0.54968820    -0.03100
C1031       C  0.95045699  0.41499972  0.55976819    -0.08900
C1032       C  0.94350065  0.39575083  0.57320306    -0.16600
C1033       C  0.95959865  0.38574168  0.57687113     0.25600
C1034       C  0.98274248  0.39514432  0.56686322    -0.18200
C1035       C  0.98973583  0.41439964  0.55337178    -0.07100
C1036       C  0.95265947  0.36657489  0.59135095    -0.13600
C1037       C  0.94632780  0.35178273  0.60433531    -0.13300
C1038       C  0.93842823  0.33658061  0.62121823     0.25500
C1039       C  0.92380877  0.34090370  0.63433690    -0.18700
C1040       C  0.91872939  0.32911236  0.65171154    -0.07200
C1041       C  0.92811915  0.31267641  0.65635298    -0.03300
C1042       C  0.94139159  0.30701451  0.64277041    -0.08600
C1043       C  0.94663137  0.31902046  0.62530372    -0.16200
H1044       H  0.93761664  0.42237568  0.55734549     0.11900
H1045       H  0.92560354  0.38881455  0.58085522     0.11200
H1046       H  0.99550172  0.38774239  0.56957810     0.11200
H1047       H  0.00778430  0.42137187  0.54593429     0.11700
H1048       H  0.91729441  0.35435524  0.63144632     0.11700
H1049       H  0.90863452  0.33396743  0.66195412     0.11700
H1050       H  0.94928298  0.29484585  0.64610545     0.11900
H1051       H  0.95800995  0.31548036  0.61532680     0.10700
C1052       C  0.97364632  0.54934272  0.54644526    -0.03100
C1053       C  0.95110168  0.53631888  0.55741439    -0.08900
C1054       C  0.94326239  0.55019482  0.56870626    -0.16600
C1055       C  0.95774000  0.57731781  0.56921006     0.25600
C1056       C  0.98025840  0.59041511  0.55842440    -0.18200
C1057       C  0.98816663  0.57659752  0.54716811    -0.07100
C1058       C  0.94974138  0.59182488  0.58079825    -0.13600
C1059       C  0.94457595  0.60523430  0.59038275    -0.13300
C1060       C  0.94122435  0.62331691  0.60173989     0.25500
C1061       C  0.93958621  0.64348376  0.59342679    -0.18700
C1062       C  0.94143221  0.66383829  0.60422008    -0.07200
C1063       C  0.94469493  0.66419431  0.62350242    -0.03300
C1064       C  0.94440840  0.64297294  0.63189796    -0.08600
C1065       C  0.94271392  0.62269013  0.62108601    -0.16200
H1066       H  0.93943581  0.51538254  0.55722853     0.11900
H1067       H  0.92585117  0.53974899  0.57699521     0.11200
H1068       H  0.99171060  0.61137673  0.55866743     0.11200
H1069       H  0.00554740  0.58730358  0.53889911     0.11700
H1070       H  0.93859115  0.64436674  0.57849468     0.11700
H1071       H  0.94239923  0.68032632  0.59738200     0.11700
H1072       H  0.94781538  0.64322926  0.64663524     0.11900
H1073       H  0.94422431  0.60738068  0.62773149     0.10700
C1074       C  0.90476438  0.45178170  0.47716292    -0.03100
C1075       C  0.88474112  0.43977599  0.49034555    -0.08900
C1076       C  0.85884320  0.42758352  0.48496885    -0.16600
C1077       C  0.85240877  0.42716222  0.46634771     0.25600
C1078       C  0.87211466  0.43899449  0.45305181    -0.18200
C1079       C  0.89816640  0.45122260  0.45841117    -0.07100
C1080       C  0.82550394  0.41453029  0.46117309    -0.13600
C1081       C  0.80250435  0.40349257  0.45831196    -0.13300
C1082       C  0.77476271  0.38994039  0.45621118     0.25500
C1083       C  0.76118137  0.36359483  0.45159574    -0.18700
C1084       C  0.73415835  0.35014689  0.45035293    -0.07200
C1085       C  0.72031141  0.36291034  0.45364697    -0.03300
C1086       C  0.73416867  0.38945948  0.45813934    -0.08600
C1087       C  0.76118187  0.40282443  0.45947485    -0.16200
H1088       H  0.88904427  0.43978573  0.50489022     0.11900
H1089       H  0.84379620  0.41849796  0.49538362     0.11200
H1090       H  0.86735972  0.43880931  0.43857981     0.11200
H1091       H  0.91308714  0.46034183  0.44793196     0.11700
H1092       H  0.77146115  0.35337877  0.44911831     0.11700
H1093       H  0.72413006  0.32975859  0.44681445     0.11700
H1094       H  0.72413825  0.39984945  0.46088065     0.11900
H1095       H  0.77145649  0.42316359  0.46320428     0.10700
C1096       C  0.58137752  0.58254700  0.00145834    -0.03100
C1097       C  0.55750442  0.58123491  0.99902759    -0.08900
C1098       C  0.53425298  0.55728277  0.99864989    -0.16600
C1099       C  0.53436485  0.53412055  0.00064716     0.25600
C1100       C  0.55811373  0.53522939  0.00281442    -0.18200
C1101       C  0.58140633  0.55921579  0.00322178    -0.07100
C1102       C  0.51009728  0.50942523  0.00080025    -0.13600
C1103       C  0.48934863  0.48930636  0.00117130    -0.13300
C1104       C  0.46393323  0.46592624  0.00186841     0.25500
C1105       C  0.46134432  0.44137668  0.00310308    -0.18700
C1106       C  0.43669220  0.41894737  0.00416390    -0.07200
C1107       C  0.41423720  0.42071726  0.00393167    -0.03300
C1108       C  0.41699061  0.44536497  0.00250120    -0.08600
C1109       C  0.44157608  0.46773291  0.00152589    -0.16200
H1110       H  0.55677539  0.59881414  0.99791407     0.11900
H1111       H  0.51612551  0.55686293  0.99701828     0.11200
H1112       H  0.55863538  0.51755743  0.00430736     0.11200
H1113       H  0.59943566  0.55951305  0.00481454     0.11700
H1114       H  0.47838150  0.43956457  0.00331813     0.11700
H1115       H  0.43517867  0.40025566  0.00498895     0.11700
H1116       H  0.40004176  0.44731579  0.00251716     0.11900
H1117       H  0.44313835  0.48648617  0.00063807     0.10700
C1118       C  0.75634889  0.63310398  0.12108593    -0.03100
C1119       C  0.75933971  0.63978775  0.10221086    -0.08900
C1120       C  0.73770433  0.63033479  0.09059553    -0.16600
C1121       C  0.71270251  0.61395612  0.09757757     0.25600
C1122       C  0.70952967  0.60710355  0.11632194    -0.18200
C1123       C  0.73112101  0.61658173  0.12797475    -0.07100
C1124       C  0.69043596  0.60477786  0.08553739    -0.13600
C1125       C  0.67291010  0.59883003  0.07470666    -0.13300
C1126       C  0.65423880  0.59501819  0.06055959     0.25500
C1127       C  0.63590770  0.60244297  0.06386776    -0.18700
C1128       C  0.62221321  0.60482551  0.04908790    -0.07200
C1129       C  0.62675588  0.59991997  0.03081916    -0.03300
C1130       C  0.64334712  0.59016742  0.02784500    -0.08600
C1131       C  0.65695807  0.58768085  0.04262147    -0.16200
H1132       H  0.77838942  0.65243509  0.09642324     0.11900
H1133       H  0.74048954  0.63590422  0.07614377     0.11200
H1134       H  0.69035698  0.59451672  0.12196629     0.11200
H1135       H  0.72802402  0.61092109  0.14240021     0.11700
H1136       H  0.63370753  0.60839603  0.07761239     0.11700
H1137       H  0.61029083  0.61327754  0.05166518     0.11700
H1138       H  0.64796227  0.58722188  0.01385944     0.11900
H1139       H  0.67118182  0.58210173  0.03978806     0.10700
C1140       C  0.75638277  0.08366426  0.66374775    -0.03100
C1141       C  0.75431499  0.10567507  0.66051574    -0.08900
C1142       C  0.77587712  0.13078691  0.66277796    -0.16600
C1143       C  0.79988535  0.13442395  0.66835270     0.25600
C1144       C  0.80190391  0.11266292  0.67203864    -0.18200
C1145       C  0.78050632  0.08766122  0.66971279    -0.07100
C1146       C  0.82264974  0.16025899  0.66983876    -0.13600
C1147       C  0.84197308  0.18161987  0.67096266    -0.13300
C1148       C  0.86467040  0.20749990  0.67241982     0.25500
C1149       C  0.88780665  0.21150080  0.68019586    -0.18700
C1150       C  0.90899342  0.23674042  0.68276049    -0.07200
C1151       C  0.90746433  0.25858567  0.67767410    -0.03300
C1152       C  0.88437595  0.25413600  0.66921061    -0.08600
C1153       C  0.86334464  0.22898432  0.66660692    -0.16200
H1154       H  0.73619842  0.10361330  0.65617678     0.11900
H1155       H  0.77387502  0.14738391  0.65994265     0.11200
H1156       H  0.82023160  0.11498855  0.67631603     0.11200
H1157       H  0.78321367  0.07139054  0.67191232     0.11700
H1158       H  0.88930335  0.19512116  0.68467335     0.11700
H1159       H  0.92624845  0.23898730  0.68908484     0.11700
H1160       H  0.88190820  0.27015048  0.66544447     0.11900
H1161       H  0.84568784  0.22636107  0.66056593     0.10700
C1162       C  0.71173343  0.06356414  0.63217081    -0.03100
C1163       C  0.71567616  0.06440607  0.61290999    -0.08900
C1164       C  0.69839979  0.06592904  0.60070598    -0.16600
C1165       C  0.67683186  0.06653505  0.60756551     0.25600
C1166       C  0.67399006  0.06782511  0.62676600    -0.18200
C1167       C  0.69130534  0.06635005  0.63897473    -0.07100
C1168       C  0.65617846  0.06264404  0.59512955    -0.13600
C1169       C  0.63812583  0.05725214  0.58488530    -0.13300
C1170       C  0.61620005  0.04937912  0.57261746     0.25500
C1171       C  0.59081913  0.03640842  0.57959943    -0.18700
C1172       C  0.56959830  0.02806647  0.56764879    -0.07200
C1173       C  0.57336712  0.03255969  0.54844724    -0.03300
C1174       C  0.59896664  0.04577338  0.54159791    -0.08600
C1175       C  0.62011389  0.05402437  0.55355008    -0.16200
H1176       H  0.73065481  0.06133295  0.60728615     0.11900
H1177       H  0.70086631  0.06477735  0.58592844     0.11200
H1178       H  0.65736647  0.06812466  0.63233662     0.11200
H1179       H  0.68718772  0.06470535  0.65369006     0.11700
H1180       H  0.58739786  0.03256988  0.59429459     0.11700
H1181       H  0.55024646  0.01802841  0.57344418     0.11700
H1182       H  0.60270504  0.04957993  0.52692985     0.11900
H1183       H  0.63954870  0.06390397  0.54787181     0.10700
C1184       C  0.74797971  0.65640563  0.67118134    -0.03100
C1185       C  0.75292881  0.63779464  0.66322869    -0.08900
C1186       C  0.77828936  0.64310511  0.66038359    -0.16600
C1187       C  0.79947687  0.66709248  0.66548217     0.25600
C1188       C  0.79493035  0.68609984  0.67282526    -0.18200
C1189       C  0.76949894  0.68087136  0.67559033    -0.07100
C1190       C  0.82566295  0.67168031  0.66376258    -0.13600
C1191       C  0.84727472  0.67480650  0.66250761    -0.13300
C1192       C  0.87320607  0.67869191  0.66090146     0.25500
C1193       C  0.89481514  0.70247981  0.66584035    -0.18700
C1194       C  0.91991170  0.70686150  0.66334471    -0.07200
C1195       C  0.92412567  0.68750719  0.65588265    -0.03300
C1196       C  0.90219666  0.66332188  0.65155434    -0.08600
C1197       C  0.87704544  0.65900826  0.65399881    -0.16200
H1198       H  0.73719673  0.61853720  0.65999405     0.11900
H1199       H  0.78133868  0.62813479  0.65469445     0.11200
H1200       H  0.81105967  0.70485546  0.67675633     0.11200
H1201       H  0.76691278  0.69594980  0.68143402     0.11700
H1202       H  0.89231426  0.71795689  0.67119424     0.11700
H1203       H  0.93605984  0.72592944  0.66649251     0.11700
H1204       H  0.90431307  0.64777409  0.64602924     0.11900
H1205       H  0.86057994  0.64040395  0.65020127     0.10700
C1206       C  0.76250379  0.88389239  0.85897840    -0.03100
C1207       C  0.76892298  0.88152114  0.87730461    -0.08900
C1208       C  0.79491984  0.89427466  0.88297934    -0.16600
C1209       C  0.81480573  0.90971597  0.87047350     0.25600
C1210       C  0.80848199  0.91255386  0.85236405    -0.18200
C1211       C  0.78264658  0.89975710  0.84665302    -0.07100
C1212       C  0.84177015  0.92216894  0.87580110    -0.13600
C1213       C  0.86478681  0.93271966  0.87878857    -0.13300
C1214       C  0.89260559  0.94544926  0.88092239     0.25500
C1215       C  0.90508946  0.93114115  0.87973911    -0.18700
C1216       C  0.93215808  0.94363459  0.88063135    -0.07200
C1217       C  0.94725659  0.97073960  0.88263561    -0.03300
C1218       C  0.93447296  0.98489170  0.88414555    -0.08600
C1219       C  0.90741569  0.97234776  0.88328575    -0.16200
H1220       H  0.75392675  0.86945308  0.88712723     0.11900
H1221       H  0.79950721  0.89186702  0.89704393     0.11200
H1222       H  0.82359029  0.92445378  0.84254190     0.11200
H1223       H  0.77846925  0.90222099  0.83249110     0.11700
H1224       H  0.89391611  0.91033289  0.87783541     0.11700
H1225       H  0.94124724  0.93208340  0.87941324     0.11700
H1226       H  0.94536976  0.00574166  0.88576503     0.11900
H1227       H  0.89807592  0.98370743  0.88417696     0.10700
C1228       C  0.72700383  0.67798432  0.70453475    -0.03100
C1229       C  0.72934396  0.67729031  0.72386337    -0.08900
C1230       C  0.73120593  0.69729396  0.73508863    -0.16600
C1231       C  0.73061215  0.71826248  0.72718813     0.25600
C1232       C  0.73000307  0.71991031  0.70784428    -0.18200
C1233       C  0.72814166  0.69988684  0.69660054    -0.07100
C1234       C  0.72736290  0.73611802  0.73892783    -0.13600
C1235       C  0.72210732  0.74906443  0.74897755    -0.13300
C1236       C  0.71362156  0.76255587  0.76124452     0.25500
C1237       C  0.72990676  0.78888129  0.76538818    -0.18700
C1238       C  0.72154923  0.80160189  0.77744377    -0.07200
C1239       C  0.69672538  0.78819507  0.78562408    -0.03300
C1240       C  0.68047540  0.76180166  0.78126325    -0.08600
C1241       C  0.68884783  0.74915739  0.76919298    -0.16200
H1242       H  0.72762967  0.66026197  0.73036660     0.11900
H1243       H  0.73144151  0.69556566  0.75000264     0.11200
H1244       H  0.72928899  0.73584156  0.70149816     0.11200
H1245       H  0.72538757  0.70046247  0.68183570     0.11700
H1246       H  0.74911104  0.79956921  0.75937146     0.11700
H1247       H  0.73463231  0.82190147  0.78046998     0.11700
H1248       H  0.66127961  0.75084324  0.78723887     0.11900
H1249       H  0.67597813  0.72881639  0.76612422     0.10700
C1250       C  0.73849247  0.03173105  0.68641140    -0.03100
C1251       C  0.72612198  0.03582740  0.70148952    -0.08900
C1252       C  0.72380142  0.02354868  0.71850422    -0.16600
C1253       C  0.73407016  0.00730567  0.72063714     0.25600
C1254       C  0.74824042  0.00495445  0.70608351    -0.18200
C1255       C  0.75034030  0.01697578  0.68908925    -0.07100
C1256       C  0.72766177  0.99069375  0.73669047    -0.13600
C1257       C  0.72127292  0.97469258  0.74884627    -0.13300
C1258       C  0.71317094  0.95401506  0.76223377     0.25500
C1259       C  0.72810337  0.94246201  0.76491720    -0.18700
C1260       C  0.71986212  0.92173076  0.77723467    -0.07200
C1261       C  0.69642690  0.91205791  0.78711123    -0.03300
C1262       C  0.68159063  0.92387961  0.78441260    -0.08600
C1263       C  0.68989550  0.94465295  0.77206392    -0.16200
H1264       H  0.71621453  0.04649070  0.69960467     0.11900
H1265       H  0.71265864  0.02545811  0.72958442     0.11200
H1266       H  0.75623453  0.99244452  0.70745654     0.11200
H1267       H  0.75948529  0.01310284  0.67755272     0.11700
H1268       H  0.74606884  0.94935013  0.75736463     0.11700
H1269       H  0.73183984  0.91320448  0.77894552     0.11700
H1270       H  0.66351161  0.91702388  0.79178390     0.11900
H1271       H  0.67804412  0.95327806  0.77008234     0.10700
C1272       C  0.60046427  0.63202720  0.97559195    -0.03100
C1273       C  0.60921002  0.62802459  0.95850769    -0.08900
C1274       C  0.60958004  0.64179444  0.94273111    -0.16600
C1275       C  0.60106535  0.65961068  0.94383933     0.25600
C1276       C  0.59012809  0.66182751  0.96042459    -0.18200
C1277       C  0.58986996  0.64817346  0.97618175    -0.07100
C1278       C  0.60654514  0.67790242  0.92896607    -0.13600
C1279       C  0.61291970  0.69487915  0.91754861    -0.13300
C1280       C  0.62171460  0.71626561  0.90466057     0.25500
C1281       C  0.61631221  0.71161190  0.88571556    -0.18700
C1282       C  0.62495293  0.73233861  0.87329657    -0.07200
C1283       C  0.63924676  0.75817788  0.87959043    -0.03300
C1284       C  0.64463294  0.76265854  0.89865767    -0.08600
C1285       C  0.63593766  0.74190115  0.91104925    -0.16200
H1286       H  0.61834439  0.61646204  0.95783785     0.11900
H1287       H  0.61824056  0.63993769  0.93006168     0.11200
H1288       H  0.58357921  0.67557787  0.96158001     0.11200
H1289       H  0.58385713  0.65227720  0.98930064     0.11700
H1290       H  0.60539178  0.69193859  0.88052061     0.11700
H1291       H  0.62039718  0.72809641  0.85875068     0.11700
H1292       H  0.65548335  0.78222366  0.90404074     0.11900
H1293       H  0.64032039  0.74587356  0.92564721     0.10700
C1294       C  0.57270956  0.78786524  0.80909381    -0.03100
C1295       C  0.55904715  0.76102280  0.80552370    -0.08900
C1296       C  0.53272471  0.74809452  0.80079412    -0.16600
C1297       C  0.51953420  0.76169871  0.79953847     0.25600
C1298       C  0.53300339  0.78843342  0.80292305    -0.18200
C1299       C  0.55932471  0.80140912  0.80763694    -0.07100
C1300       C  0.49217594  0.74818166  0.79503990    -0.13600
C1301       C  0.46922469  0.73657287  0.79154831    -0.13300
C1302       C  0.44164307  0.72214691  0.78780869     0.25500
C1303       C  0.42889317  0.73482747  0.78164645    -0.18700
C1304       C  0.40205604  0.72089597  0.77865162    -0.07200
C1305       C  0.38749193  0.69397260  0.78170745    -0.03300
C1306       C  0.40058008  0.68135252  0.78756635    -0.08600
C1307       C  0.42735381  0.69533030  0.79064360    -0.16200
H1308       H  0.56862044  0.74992527  0.80656485     0.11900
H1309       H  0.52260863  0.72741344  0.79824897     0.11200
H1310       H  0.52311454  0.79925546  0.80205143     0.11200
H1311       H  0.56910487  0.82202405  0.81035768     0.11700
H1312       H  0.43965095  0.75554376  0.77932588     0.11700
H1313       H  0.39270732  0.73124542  0.77404266     0.11700
H1314       H  0.39008077  0.66069910  0.79011322     0.11900
H1315       H  0.43688076  0.68521298  0.79540688     0.10700
C1316       C  0.45404880  0.42828759  0.54440669    -0.03100
C1317       C  0.45249576  0.43269769  0.56341248    -0.08900
C1318       C  0.44057920  0.41188933  0.57580873    -0.16600
C1319       C  0.43006694  0.38637972  0.56943168     0.25600
C1320       C  0.43142514  0.38182510  0.55055053    -0.18200
C1321       C  0.44331462  0.40255698  0.53814760    -0.07100
C1322       C  0.41715156  0.36484869  0.58211456    -0.13600
C1323       C  0.40498944  0.34696078  0.59261957    -0.13300
C1324       C  0.38809283  0.32645688  0.60515774     0.25500
C1325       C  0.36610301  0.30435267  0.59829414    -0.18700
C1326       C  0.34660784  0.28734450  0.61043650    -0.07200
C1327       C  0.34889026  0.29217897  0.62959534    -0.03300
C1328       C  0.37198093  0.31314566  0.63649379    -0.08600
C1329       C  0.39148196  0.33018162  0.62434172    -0.16200
H1330       H  0.46054014  0.45220985  0.56871932     0.11900
H1331       H  0.43951202  0.41570378  0.59036674     0.11200
H1332       H  0.42322388  0.36221209  0.54538603     0.11200
H1333       H  0.44411551  0.39838997  0.52363461     0.11700
H1334       H  0.36309080  0.30131609  0.58349884     0.11700
H1335       H  0.32863506  0.27188699  0.60475184     0.11700
H1336       H  0.37376173  0.31789227  0.65110961     0.11900
H1337       H  0.40825683  0.34730712  0.62985503     0.10700
C1338       C  0.42522362  0.45449755  0.45035145    -0.03100
C1339       C  0.41600572  0.46803422  0.44005749    -0.08900
C1340       C  0.39502001  0.45486125  0.42791253    -0.16600
C1341       C  0.38283124  0.42793360  0.42584258     0.25600
C1342       C  0.39186801  0.41432416  0.43602128    -0.18200
C1343       C  0.41284559  0.42744058  0.44814875    -0.07100
C1344       C  0.36102406  0.41406782  0.41342015    -0.13600
C1345       C  0.34267211  0.40057334  0.40355056    -0.13300
C1346       C  0.32096292  0.38142728  0.39274052     0.25500
C1347       C  0.30357083  0.35759312  0.40084661    -0.18700
C1348       C  0.28527677  0.33713165  0.38998621    -0.07200
C1349       C  0.28394381  0.34015148  0.37081481    -0.03300
C1350       C  0.30001648  0.36467181  0.36292564    -0.08600
C1351       C  0.31856996  0.38519936  0.37383483    -0.16200
H1352       H  0.42499307  0.48884049  0.44139133     0.11900
H1353       H  0.38828891  0.46569248  0.42016894     0.11200
H1354       H  0.38264853  0.39349194  0.43460837     0.11200
H1355       H  0.41930615  0.41635288  0.45584496     0.11700
H1356       H  0.30514932  0.35431424  0.41539677     0.11700
H1357       H  0.27333649  0.31833515  0.39632652     0.11700
H1358       H  0.29974774  0.36731610  0.34812013     0.11900
H1359       H  0.33193690  0.40349122  0.36732722     0.10700
C1360       C  0.69402674  0.61951160  0.65029686    -0.03100
C1361       C  0.67716403  0.59307849  0.64642995    -0.08900
C1362       C  0.66492191  0.58504155  0.62923196    -0.16600
C1363       C  0.66925517  0.60324387  0.61553081     0.25600
C1364       C  0.68749701  0.62949373  0.61877598    -0.18200
C1365       C  0.69992954  0.63758246  0.63604650    -0.07100
C1366       C  0.65301602  0.59498795  0.59913199    -0.13600
C1367       C  0.63726828  0.58661017  0.58668080    -0.13300
C1368       C  0.61684139  0.57539000  0.57288464     0.25500
C1369       C  0.59097706  0.56549171  0.57818362    -0.18700
C1370       C  0.57102364  0.55395769  0.56506898    -0.07200
C1371       C  0.57653062  0.55206670  0.54633344    -0.03300
C1372       C  0.60261804  0.56227688  0.54110311    -0.08600
C1373       C  0.62254416  0.57379285  0.55425294    -0.16200
H1374       H  0.67213241  0.57875772  0.65718793     0.11900
H1375       H  0.65095714  0.56471090  0.62700214     0.11200
H1376       H  0.69107900  0.64385697  0.60834504     0.11200
H1377       H  0.71246282  0.65808004  0.63874441     0.11700
H1378       H  0.58617851  0.56650496  0.59252579     0.11700
H1379       H  0.55125031  0.54632923  0.56965082     0.11700
H1380       H  0.60765521  0.56116591  0.52684966     0.11900
H1381       H  0.64239248  0.58127797  0.54988920     0.10700
C1382       C  0.55132508  0.57904078  0.45010576    -0.03100
C1383       C  0.57850156  0.59291849  0.44852859    -0.08900
C1384       C  0.59096484  0.61365052  0.43610272    -0.16600
C1385       C  0.57646720  0.62079124  0.42509767     0.25600
C1386       C  0.54945254  0.60695920  0.42649174    -0.18200
C1387       C  0.53698453  0.58631914  0.43888264    -0.07100
C1388       C  0.58900977  0.64157641  0.41182781    -0.13600
C1389       C  0.59822144  0.65739163  0.39954338    -0.13300
C1390       C  0.60774400  0.67314706  0.38308526     0.25500
C1391       C  0.59201778  0.66569712  0.36735865    -0.18700
C1392       C  0.60237378  0.67728404  0.35029546    -0.07200
C1393       C  0.62860808  0.69655616  0.34870597    -0.03300
C1394       C  0.64378754  0.70559029  0.36478268    -0.08600
C1395       C  0.63340706  0.69380323  0.38192242    -0.16200
H1396       H  0.59012504  0.58785130  0.45694321     0.11900
H1397       H  0.61188478  0.62405004  0.43504668     0.11200
H1398       H  0.53797415  0.61208285  0.41794100     0.11200
H1399       H  0.51605289  0.57605365  0.43964971     0.11700
H1400       H  0.57217963  0.64975639  0.36802606     0.11700
H1401       H  0.59041616  0.66981853  0.33804177     0.11700
H1402       H  0.66418020  0.72003375  0.36381475     0.11900
H1403       H  0.64581566  0.69970256  0.39397979     0.10700
C1404       C  0.54848518  0.45699740  0.47293220    -0.03100
C1405       C  0.57569665  0.46965128  0.47277494    -0.08900
C1406       C  0.58821987  0.45617877  0.46794191    -0.16600
C1407       C  0.57377629  0.42993346  0.46311930     0.25600
C1408       C  0.54672155  0.41729247  0.46289455    -0.18200
C1409       C  0.53414353  0.43069857  0.46776938    -0.07100
C1410       C  0.58670601  0.41578106  0.45911164    -0.13600
C1411       C  0.59778465  0.40398561  0.45655763    -0.13300
C1412       C  0.61134501  0.39005995  0.45447389     0.25500
C1413       C  0.59761249  0.36295875  0.45419781    -0.18700
C1414       C  0.61086386  0.34942979  0.45314262    -0.07200
C1415       C  0.63811198  0.36284781  0.45240872    -0.03300
C1416       C  0.65170294  0.39011774  0.45238454    -0.08600
C1417       C  0.63839689  0.40358783  0.45342259    -0.16200
H1418       H  0.58732466  0.48982766  0.47674314     0.11900
H1419       H  0.60917125  0.46614685  0.46822905     0.11200
H1420       H  0.53533035  0.39697131  0.45921798     0.11200
H1421       H  0.51318688  0.42036572  0.46772977     0.11700
H1422       H  0.57666837  0.35226935  0.45503641     0.11700
H1423       H  0.59974636  0.32846743  0.45315310     0.11700
H1424       H  0.67264355  0.40109790  0.45177018     0.11900
H1425       H  0.64924012  0.42456866  0.45364637     0.10700
C1426       C  0.45518637  0.55091791  0.52137345    -0.03100
C1427       C  0.45022878  0.56557309  0.50867220    -0.08900
C1428       C  0.43690559  0.57791563  0.51419109    -0.16600
C1429       C  0.42821519  0.57576954  0.53245112     0.25600
C1430       C  0.43310864  0.56134344  0.54525833    -0.18200
C1431       C  0.44659835  0.54903414  0.53977651    -0.07100
C1432       C  0.41417865  0.58835016  0.53778107    -0.13600
C1433       C  0.40254590  0.59945399  0.54086560    -0.13300
C1434       C  0.38890248  0.61324547  0.54311085     0.25500
C1435       C  0.40271935  0.64022667  0.54496157    -0.18700
C1436       C  0.38957334  0.65384318  0.54603098    -0.07200
C1437       C  0.36235423  0.64063039  0.54522184    -0.03300
C1438       C  0.34863214  0.61343963  0.54360992    -0.08600
C1439       C  0.36183771  0.59987904  0.54253859    -0.16200
H1440       H  0.45664786  0.56752785  0.49441846     0.11900
H1441       H  0.43327682  0.58905840  0.50416897     0.11200
H1442       H  0.42642545  0.55952964  0.55943621     0.11200
H1443       H  0.45001012  0.53781030  0.54984491     0.11700
H1444       H  0.42368464  0.65078610  0.54532952     0.11700
H1445       H  0.40077278  0.67473260  0.54728949     0.11700
H1446       H  0.32769604  0.60261808  0.54296088     0.11900
H1447       H  0.35094444  0.57900022  0.54101625     0.10700
C1448       C  0.58604583  0.01328137  0.99483889    -0.03100
C1449       C  0.56453186  0.98795204  0.99370713    -0.08900
C1450       C  0.53919216  0.98333816  0.99594763    -0.16600
C1451       C  0.53492336  0.00397510  0.99922498     0.25600
C1452       C  0.55627935  0.02909659  0.00071608    -0.18200
C1453       C  0.58146832  0.03369580  0.99858005    -0.07100
C1454       C  0.50886578  0.99984685  0.00055820    -0.13600
C1455       C  0.48754658  0.99751051  0.00149602    -0.13300
C1456       C  0.46187886  0.99440429  0.00260803     0.25500
C1457       C  0.45854046  0.01505714  0.00795394    -0.18700
C1458       C  0.43356010  0.01150414  0.00975002    -0.07200
C1459       C  0.41140080  0.98717157  0.00620195    -0.03300
C1460       C  0.41511856  0.96677070  0.00047746    -0.08600
C1461       C  0.43997612  0.97035551  0.99867477    -0.16200
H1462       H  0.56722015  0.97178742  0.99090359     0.11900
H1463       H  0.52292914  0.96373239  0.99480281     0.11200
H1464       H  0.55345820  0.04530919  0.00316696     0.11200
H1465       H  0.59743426  0.05349824  0.99915903     0.11700
H1466       H  0.47525552  0.03386276  0.01099124     0.11700
H1467       H  0.43166838  0.02770921  0.01405473     0.11700
H1468       H  0.39870113  0.94757764  0.99809004     0.11900
H1469       H  0.44206187  0.95413097  0.99458227     0.10700
C1470       C  0.60725434  0.98986840  0.96298895    -0.03100
C1471       C  0.60522980  0.96793450  0.97158909    -0.08900
C1472       C  0.60429859  0.94783252  0.96092807    -0.16600
C1473       C  0.60541685  0.94941809  0.94153182     0.25600
C1474       C  0.60552136  0.97032605  0.93291346    -0.18200
C1475       C  0.60645745  0.99037637  0.94353862    -0.07100
C1476       C  0.60939711  0.93144829  0.93049668    -0.13600
C1477       C  0.61475659  0.91850324  0.92053237    -0.13300
C1478       C  0.62248209  0.90495715  0.90769434     0.25500
C1479       C  0.61633195  0.90359545  0.88888657    -0.18700
C1480       C  0.62470820  0.89165882  0.87619187    -0.07200
C1481       C  0.63950082  0.88082652  0.88202927    -0.03300
C1482       C  0.64544686  0.88207873  0.90100065    -0.08600
C1483       C  0.63702829  0.89406844  0.91370344    -0.16200
H1484       H  0.60683211  0.96747553  0.98649791     0.11900
H1485       H  0.60438937  0.93190754  0.96783522     0.11200
H1486       H  0.60654778  0.97197339  0.91795992     0.11200
H1487       H  0.60882249  0.00738250  0.93655562     0.11700
H1488       H  0.60521487  0.91199173  0.88397227     0.11700
H1489       H  0.61966028  0.89103651  0.86174982     0.11700
H1490       H  0.65669736  0.87390189  0.90602531     0.11900
H1491       H  0.64206216  0.89503188  0.92818653     0.10700
C1492       C  0.99033908  0.41236156  0.00062232    -0.03100
C1493       C  0.01502840  0.43373299  0.99653570    -0.08900
C1494       C  0.01975495  0.45920688  0.99752876    -0.16600
C1495       C  0.99997784  0.46390719  0.00276226     0.25600
C1496       C  0.97572249  0.44289063  0.00758631    -0.18200
C1497       C  0.97094299  0.41749297  0.00651927    -0.07100
C1498       C  0.00407030  0.49000515  0.00265703    -0.13600
C1499       C  0.00642217  0.51136219  0.00246366    -0.13300
C1500       C  0.00879944  0.53675839  0.00238213     0.25500
C1501       C  0.98707640  0.53925922  0.00548040    -0.18700
C1502       C  0.98952302  0.56383792  0.00595484    -0.07200
C1503       C  0.01378170  0.58644013  0.00334840    -0.03300
C1504       C  0.03539800  0.58368781  0.99994472    -0.08600
C1505       C  0.03292791  0.55914951  0.99946009    -0.16200
H1506       H  0.03065682  0.43091003  0.99227644     0.11900
H1507       H  0.03872538  0.47520019  0.99387063     0.11200
H1508       H  0.96017321  0.44606082  0.01167652     0.11200
H1509       H  0.95155586  0.40177241  0.00944881     0.11700
H1510       H  0.96822401  0.52219007  0.00767510     0.11700
H1511       H  0.97242533  0.56510083  0.00832208     0.11700
H1512       H  0.05443737  0.60062580  0.99821878     0.11900
H1513       H  0.04996188  0.55769272  0.99707363     0.10700
C1514       C  0.01329592  0.39023003  0.96950620    -0.03100
C1515       C  0.01228795  0.39187263  0.95015265    -0.08900
C1516       C  0.03202722  0.39317588  0.93895318    -0.16600
C1517       C  0.05299734  0.39270195  0.94693074     0.25600
C1518       C  0.05508445  0.39302289  0.96627581    -0.18200
C1519       C  0.03533632  0.39176112  0.97749776    -0.07100
C1520       C  0.07029702  0.38852760  0.93531900    -0.13600
C1521       C  0.08274109  0.38271153  0.92523838    -0.13300
C1522       C  0.09597742  0.37431017  0.91271341     0.25500
C1523       C  0.12226191  0.39065133  0.90861122    -0.18700
C1524       C  0.13471991  0.38284790  0.89591962    -0.07200
C1525       C  0.12108460  0.35852681  0.88704239    -0.03300
C1526       C  0.09478390  0.34203636  0.89151775    -0.08600
C1527       C  0.08237353  0.34987978  0.90423755    -0.16200
H1528       H  0.99513599  0.38985007  0.94365038     0.11900
H1529       H  0.03001765  0.39274657  0.92403461     0.11200
H1530       H  0.07106416  0.39245955  0.97266908     0.11200
H1531       H  0.03612747  0.38956319  0.99231849     0.11700
H1532       H  0.13308169  0.40957114  0.91505600     0.11700
H1533       H  0.15497583  0.39606233  0.89286719     0.11700
H1534       H  0.08368951  0.32319609  0.88502007     0.11900
H1535       H  0.06204205  0.33697807  0.90729200     0.10700
C1536       C  0.68102737  0.91994317  0.34669973    -0.03100
C1537       C  0.65760098  0.89741147  0.35158787    -0.08900
C1538       C  0.65416669  0.87264205  0.34866405    -0.16600
C1539       C  0.67397698  0.86984002  0.34070657     0.25600
C1540       C  0.69690888  0.89199293  0.33523599    -0.18200
C1541       C  0.70045528  0.91664594  0.33825206    -0.07100
C1542       C  0.67137702  0.84451227  0.33861145    -0.13600
C1543       C  0.67004921  0.82374384  0.33677740    -0.13300
C1544       C  0.66791267  0.79867593  0.33428375     0.25500
C1545       C  0.68991839  0.79668591  0.33102032    -0.18700
C1546       C  0.68743736  0.77238165  0.32780912    -0.07200
C1547       C  0.66289380  0.74968487  0.32785412    -0.03300
C1548       C  0.64104138  0.75189289  0.33150790    -0.08600
C1549       C  0.64352412  0.77608541  0.33467911    -0.16200
H1550       H  0.64203297  0.89875932  0.35793869     0.11900
H1551       H  0.63620484  0.85569337  0.35291890     0.11200
H1552       H  0.71246957  0.89027690  0.32910200     0.11200
H1553       H  0.71908899  0.93314879  0.33472760     0.11700
H1554       H  0.70897045  0.81393971  0.33074808     0.11700
H1555       H  0.70464671  0.77136810  0.32528774     0.11700
H1556       H  0.62184565  0.73487522  0.33133877     0.11900
H1557       H  0.62630451  0.77718927  0.33713210     0.10700
C1558       C  0.54440073  0.97272060  0.45625965    -0.03100
C1559       C  0.53083835  0.94921313  0.44636953    -0.08900
C1560       C  0.54408820  0.94064550  0.43506807    -0.16600
C1561       C  0.57111427  0.95535537  0.43346662     0.25600
C1562       C  0.58474710  0.97868533  0.44332961    -0.18200
C1563       C  0.57155880  0.98729824  0.45461119    -0.07100
C1564       C  0.58498168  0.94682299  0.42164871    -0.13600
C1565       C  0.59799126  0.94127030  0.41192818    -0.13300
C1566       C  0.61584757  0.93736714  0.40070026     0.25500
C1567       C  0.63591772  0.93579370  0.40920446    -0.18700
C1568       C  0.65610319  0.93704960  0.39855690    -0.07200
C1569       C  0.65649578  0.93976124  0.37920921    -0.03300
C1570       C  0.63528815  0.93928525  0.37062173    -0.08600
C1571       C  0.61512711  0.93815564  0.38130380    -0.16200
H1572       H  0.50996511  0.93739304  0.44737013     0.11900
H1573       H  0.53323028  0.92255072  0.42756958     0.11200
H1574       H  0.60564406  0.99028744  0.44228701     0.11200
H1575       H  0.58267742  0.00536217  0.46208874     0.11700
H1576       H  0.63688653  0.93532727  0.42416323     0.11700
H1577       H  0.67255514  0.93816224  0.40554718     0.11700
H1578       H  0.63553059  0.94224450  0.35582030     0.11900
H1579       H  0.59987186  0.93957259  0.37449321     0.10700
C1580       C  0.08967035  0.34406941  0.32478780    -0.03100
C1581       C  0.10792808  0.34870542  0.31079231    -0.08900
C1582       C  0.12841803  0.34444249  0.31389257    -0.16600
C1583       C  0.13112129  0.33535428  0.33104070     0.25600
C1584       C  0.11282046  0.33032161  0.34506068    -0.18200
C1585       C  0.09225861  0.33474654  0.34198096    -0.07100
C1586       C  0.15303375  0.33184989  0.33408338    -0.13600
C1587       C  0.17200663  0.32977446  0.33567945    -0.13300
C1588       C  0.19489986  0.32754794  0.33731858     0.25500
C1589       C  0.20521592  0.32816204  0.35476178    -0.18700
C1590       C  0.22654448  0.32479507  0.35649919    -0.07200
C1591       C  0.23830915  0.32089346  0.34080062    -0.03300
C1592       C  0.22829116  0.32125063  0.32323893    -0.08600
C1593       C  0.20676400  0.32441716  0.32155003    -0.16200
H1594       H  0.10660373  0.35621285  0.29750397     0.11900
H1595       H  0.14235552  0.34852471  0.30292672     0.11200
H1596       H  0.11456460  0.32320617  0.35840510     0.11200
H1597       H  0.07842516  0.33082017  0.35294255     0.11700
H1598       H  0.19635663  0.33058703  0.36711768     0.11700
H1599       H  0.23298706  0.32404151  0.37030707     0.11700
H1600       H  0.23670407  0.31877475  0.31075603     0.11900
H1601       H  0.19916634  0.32408267  0.30791040     0.10700
C1602       C  0.07205902  0.37726060  0.34942914    -0.03100
C1603       C  0.08669307  0.40385391  0.35355199    -0.08900
C1604       C  0.08322300  0.41344271  0.37037911    -0.16600
C1605       C  0.06493608  0.39659306  0.38329003     0.25600
C1606       C  0.05155826  0.36986434  0.37978662    -0.18200
C1607       C  0.05509215  0.36025863  0.36296538    -0.07100
C1608       C  0.05786374  0.40690943  0.39897656    -0.13600
C1609       C  0.05076578  0.41583453  0.41118296    -0.13300
C1610       C  0.04162665  0.42687172  0.42507048     0.25500
C1611       C  0.04859691  0.42801267  0.44368831    -0.18700
C1612       C  0.04016308  0.43919910  0.45701339    -0.07200
C1613       C  0.02458875  0.44949561  0.45194997    -0.03300
C1614       C  0.01742294  0.44796100  0.43322995    -0.08600
C1615       C  0.02587342  0.43676543  0.41994112    -0.16200
H1616       H  0.09916619  0.41742554  0.34308993     0.11900
H1617       H  0.09359213  0.43416087  0.37278395     0.11200
H1618       H  0.03716674  0.35658983  0.38952499     0.11200
H1619       H  0.04273168  0.33986549  0.35981460     0.11700
H1620       H  0.06073280  0.42043147  0.44790219     0.11700
H1621       H  0.04610135  0.44004110  0.47125433     0.11700
H1622       H  0.00549790  0.45566883  0.42878690     0.11900
H1623       H  0.02026477  0.43601485  0.40561254     0.10700
C1624       C  0.75464815  0.11204318  0.12202145    -0.03100
C1625       C  0.76009826  0.10766000  0.10381039    -0.08900
C1626       C  0.74041607  0.09629137  0.09049653    -0.16600
C1627       C  0.71490153  0.08913586  0.09506101     0.25600
C1628       C  0.70920981  0.09304841  0.11321554    -0.18200
C1629       C  0.72885331  0.10430828  0.12658937    -0.07100
C1630       C  0.69491963  0.07868547  0.08093484    -0.13600
C1631       C  0.67946278  0.07106786  0.06830565    -0.13300
C1632       C  0.66343876  0.06360681  0.05182119     0.25500
C1633       C  0.64458107  0.03762569  0.04836499    -0.18700
C1634       C  0.63235544  0.03013432  0.03100352    -0.07200
C1635       C  0.63910630  0.04852820  0.01686292    -0.03300
C1636       C  0.65647480  0.07477393  0.02097214    -0.08600
C1637       C  0.66852742  0.08222397  0.03827005    -0.16200
H1638       H  0.77965030  0.11323106  0.09977994     0.11900
H1639       H  0.74519745  0.09341212  0.07654244     0.11200
H1640       H  0.68962630  0.08769917  0.11699482     0.11200
H1641       H  0.72390945  0.10741057  0.14042172     0.11700
H1642       H  0.64037862  0.02296078  0.05869177     0.11700
H1643       H  0.61937736  0.00975924  0.02813581     0.11700
H1644       H  0.66211588  0.08933890  0.01031722     0.11900
H1645       H  0.68294475  0.10237137  0.04068400     0.10700
C1646       C  0.87930071  0.23687047  0.12319342    -0.03100
C1647       C  0.89007565  0.26268610  0.12933688    -0.08900
C1648       C  0.90252274  0.28342867  0.11691504    -0.16600
C1649       C  0.90450928  0.27883558  0.09811354     0.25600
C1650       C  0.89409792  0.25324422  0.09190207    -0.18200
C1651       C  0.88162265  0.23245489  0.10430042    -0.07100
C1652       C  0.91664866  0.30017876  0.08508821    -0.13600
C1653       C  0.92583675  0.31681980  0.07326509    -0.13300
C1654       C  0.93516023  0.33410286  0.05744289     0.25500
C1655       C  0.96170855  0.35167044  0.05478277    -0.18700
C1656       C  0.97083441  0.36455937  0.03775874    -0.07200
C1657       C  0.95349289  0.35976785  0.02319455    -0.03300
C1658       C  0.92679276  0.34386158  0.02656483    -0.08600
C1659       C  0.91772266  0.33116079  0.04352163    -0.16200
H1660       H  0.88871384  0.26689914  0.14375458     0.11900
H1661       H  0.91042142  0.30305201  0.12197356     0.11200
H1662       H  0.89543715  0.24932073  0.07740701     0.11200
H1663       H  0.87362605  0.21292028  0.09905277     0.11700
H1664       H  0.97548090  0.35416120  0.06539513     0.11700
H1665       H  0.99150544  0.37625531  0.03540331     0.11700
H1666       H  0.91305877  0.33956838  0.01549563     0.11900
H1667       H  0.89717949  0.31770351  0.04530289     0.10700
C1668       C  0.78151743  0.08731685  0.21982510    -0.03100
C1669       C  0.79577325  0.07765073  0.22861151    -0.08900
C1670       C  0.78427368  0.05815421  0.24198481    -0.16600
C1671       C  0.75828574  0.04785196  0.24692806     0.25600
C1672       C  0.74386291  0.05729852  0.23830723    -0.18200
C1673       C  0.75534929  0.07683577  0.22483072    -0.07100
C1674       C  0.74695092  0.02832074  0.26129654    -0.13600
C1675       C  0.73900517  0.01326942  0.27415574    -0.13300
C1676       C  0.73132902  0.99781590  0.29089408     0.25500
C1677       C  0.70533621  0.97896262  0.29423893    -0.18700
C1678       C  0.69761276  0.96711256  0.31169672    -0.07200
C1679       C  0.71579159  0.97424952  0.32602191    -0.03300
C1680       C  0.74203990  0.99180418  0.32212825    -0.08600
C1681       C  0.74973240  0.00343815  0.30471965    -0.16200
H1682       H  0.81593001  0.08515289  0.22516031     0.11900
H1683       H  0.79575988  0.05121521  0.24856388     0.11200
H1684       H  0.72377396  0.04966604  0.24206486     0.11200
H1685       H  0.74380799  0.08381151  0.21841743     0.11700
H1686       H  0.69085402  0.97438768  0.28369188     0.11700
H1687       H  0.67724280  0.95393191  0.31441358     0.11700
H1688       H  0.75642365  0.99766624  0.33293697     0.11900
H1689       H  0.76988848  0.01786682  0.30237539     0.10700
C1690       C  0.04857558  0.32303491  0.29259552    -0.03100
C1691       C  0.03428281  0.29786271  0.29983516    -0.08900
C1692       C  0.01774790  0.27707086  0.28830382    -0.16600
C1693       C  0.01575073  0.28129463  0.26944599     0.25600
C1694       C  0.03212222  0.30582715  0.26189465    -0.18200
C1695       C  0.04839625  0.32657418  0.27339447    -0.07100
C1696       C  0.99436741  0.26215833  0.25850375    -0.13600
C1697       C  0.97538401  0.24882447  0.24919463    -0.13300
C1698       C  0.95233826  0.23528279  0.23795173     0.25500
C1699       C  0.94310423  0.24928038  0.22850550    -0.18700
C1700       C  0.92088875  0.23641771  0.21748554    -0.07200
C1701       C  0.90752659  0.20926998  0.21569891    -0.03300
C1702       C  0.91680207  0.19534513  0.22542383    -0.08600
C1703       C  0.93900054  0.20825637  0.23646349    -0.16200
H1704       H  0.03379920  0.29475491  0.31462949     0.11900
H1705       H  0.00513891  0.25820629  0.29435116     0.11200
H1706       H  0.03079653  0.30940815  0.24736537     0.11200
H1707       H  0.05909940  0.34584958  0.26755208     0.11700
H1708       H  0.95317207  0.27020319  0.22958284     0.11700
H1709       H  0.91436795  0.24776512  0.21020146     0.11700
H1710       H  0.90701132  0.17444425  0.22440852     0.11900
H1711       H  0.94582112  0.19715622  0.24375287     0.10700
C1712       C  0.78358807  0.20916180  0.19345195    -0.03100
C1713       C  0.79807764  0.23570722  0.19795624    -0.08900
C1714       C  0.78568177  0.24963699  0.20179497    -0.16600
C1715       C  0.75864552  0.23729265  0.20117730     0.25600
C1716       C  0.74405933  0.21079553  0.19710098    -0.18200
C1717       C  0.75639567  0.19680895  0.19330603    -0.07100
C1718       C  0.74584718  0.25188076  0.20411065    -0.13600
C1719       C  0.73462226  0.26368401  0.20601331    -0.13300
C1720       C  0.72064363  0.27728560  0.20784866     0.25500
C1721       C  0.69358804  0.26340460  0.20907836    -0.18700
C1722       C  0.67991522  0.27649472  0.21059787    -0.07200
C1723       C  0.69311569  0.30375577  0.21091009    -0.03300
C1724       C  0.72035637  0.31753306  0.20971874    -0.08600
C1725       C  0.73397382  0.30438771  0.20818281    -0.16200
H1726       H  0.81902439  0.24583877  0.19821646     0.11900
H1727       H  0.79721066  0.27012346  0.20494680     0.11200
H1728       H  0.72312839  0.20100986  0.19656136     0.11200
H1729       H  0.74464020  0.17646011  0.18983506     0.11700
H1730       H  0.68302616  0.24242552  0.20879887     0.11700
H1731       H  0.65900087  0.26522894  0.21147246     0.11700
H1732       H  0.73120337  0.33849952  0.20987476     0.11900
H1733       H  0.75490224  0.31538052  0.20719513     0.10700
C1734       C  0.96771326  0.02342650  0.11687022    -0.03100
C1735       C  0.97997626  0.05057701  0.11549348    -0.08900
C1736       C  0.96576568  0.06305843  0.11754606    -0.16600
C1737       C  0.93910152  0.04866001  0.12102364     0.25600
C1738       C  0.92667334  0.02164882  0.12221845    -0.18200
C1739       C  0.94081527  0.00911162  0.12011922    -0.07100
C1740       C  0.92469817  0.06162279  0.12411671    -0.13600
C1741       C  0.91280989  0.07238518  0.12769259    -0.13300
C1742       C  0.89895687  0.08511839  0.13334890     0.25500
C1743       C  0.88998912  0.08247273  0.15158387    -0.18700
C1744       C  0.87741137  0.09544561  0.15748719    -0.07200
C1745       C  0.87346704  0.11125205  0.14520882    -0.03300
C1746       C  0.88213633  0.11348078  0.12679538    -0.08600
C1747       C  0.89488733  0.10056014  0.12093483    -0.16200
H1748       H  0.00059621  0.06223509  0.11294143     0.11900
H1749       H  0.97564684  0.08397737  0.11663138     0.11200
H1750       H  0.90607346  0.01027155  0.12498419     0.11200
H1751       H  0.93070020  0.98822342  0.12129743     0.11700
H1752       H  0.89295290  0.07056187  0.16132222     0.11700
H1753       H  0.87085391  0.09315181  0.17172319     0.11700
H1754       H  0.87946195  0.12553440  0.11702565     0.11900
H1755       H  0.90176592  0.10280164  0.10678351     0.10700
loop_ 
_geom_bond_atom_site_label_1 
_geom_bond_atom_site_label_2 
_geom_bond_distance 
_geom_bond_site_symmetry_2 
_ccdc_geom_bond_type 
Zn1           O5   1.979       .  S
Zn1           O6   2.042       .  S
Zn1          O10   2.043       .  S
Zn1          O17   2.053       .  S
Zn2           O5   1.980       .  S
Zn2           O7   2.067       .  S
Zn2           O9   2.048       .  S
Zn2          O13   2.035       .  S
Zn3           O5   1.958       .  S
Zn3           O8   2.005       .  S
Zn3          O11   2.012       .  S
Zn3          O14   2.021       .  S
Zn4           O5   1.971       .  S
Zn4          O12   2.039       .  S
Zn4          O15   2.022       .  S
Zn4          O16   2.027       .  S
O6           C18   1.278       .  A
O7           C19   1.279       .  A
O8           C20   1.273       .  A
O9           C18   1.278       .  A
O10          C20   1.277       .  A
O11          C19   1.273       .  A
O12          C21   1.276       .  A
O13          C22   1.277       .  A
O14          C21   1.274       .  A
O15          C22   1.276       .  A
O16          C23   1.275       .  A
O17          C23   1.278       .  A
C18        C1624   1.495       .  S
C19        C1668   1.494       .  S
C20        C1745   1.485       .  S
C21        C1701   1.489       .  S
C22        C1712   1.487       .  S
C23        C1646   1.494       .  S
N24          C28   1.362       .  A
N24          C25   1.364       .  A
N24        C1580   1.447       .  S
C25        C1602   1.478       .  S
C25          C26   1.381       .  A
C26          C27   1.367       .  A
C26          H29   1.083       .  S
C27          C28   1.381       .  A
C27          H30   1.082       .  S
C28        C1690   1.480       .  S
N31          C35   1.367       .  A
N31          C32   1.369       .  A
N31        C1536   1.460       .  S
C32        C1569   1.484       .  S
C32          C33   1.382       .  A
C33          C34   1.364       .  A
C33          H36   1.083       .  S
C34          C35   1.380       .  A
C34          H37   1.082   1_565  S
C35        C1679   1.487       .  S
N38          C42   1.368   1_556  A
N38          C39   1.368       .  A
N38        C1492   1.458   1_556  S
C39        C1514   1.480   1_655  S
C39          C40   1.380       .  A
C40          C41   1.363       .  A
C40          H43   1.083       .  S
C41          C42   1.381   1_556  A
C41          H44   1.083       .  S
C42        C1657   1.486       .  S
N45          C49   1.366       .  A
N45          C46   1.367       .  A
N45        C1448   1.454       .  S
C46        C1470   1.484   1_545  S
C46          C47   1.382       .  A
C47          C48   1.365       .  A
C47          H50   1.083       .  S
C48          C49   1.381       .  A
C48          H51   1.082       .  S
C49        C1635   1.488   1_556  S
Zn52         O56   1.979       .  S
Zn52         O57   2.050       .  S
Zn52         O61   2.041       .  S
Zn52         O68   2.042       .  S
Zn53         O56   1.973       .  S
Zn53         O58   2.026       .  S
Zn53         O60   2.038       .  S
Zn53         O64   2.044       .  S
Zn54         O56   1.966       .  S
Zn54         O59   2.017       .  S
Zn54         O62   2.018       .  S
Zn54         O65   2.043       .  S
Zn55         O56   1.958       .  S
Zn55         O63   2.030       .  S
Zn55         O66   2.010       .  S
Zn55         O67   1.999       .  S
O57          C69   1.278       .  A
O58          C70   1.276       .  A
O59          C71   1.274       .  A
O60          C69   1.276       .  A
O61          C71   1.277       .  A
O62          C70   1.275       .  A
O63          C72   1.274       .  A
O64          C73   1.277       .  A
O65          C72   1.276       .  A
O66          C73   1.273       .  A
O67          C74   1.273       .  A
O68          C74   1.277       .  A
C69        C1371   1.496       .  S
C70        C1404   1.484       .  S
C71        C1316   1.488       .  S
C72        C1338   1.493       .  S
C73        C1382   1.487       .  S
C74        C1426   1.482       .  S
Zn75         O79   1.966       .  S
Zn75         O80   2.024       .  S
Zn75         O84   2.033       .  S
Zn75         O91   2.012       .  S
Zn76         O79   1.975       .  S
Zn76         O81   2.035       .  S
Zn76         O83   2.049       .  S
Zn76         O87   2.029       .  S
Zn77         O79   1.977       .  S
Zn77         O82   2.052       .  S
Zn77         O85   2.045       .  S
Zn77         O88   2.037       .  S
Zn78         O79   1.987       .  S
Zn78         O86   2.044       .  S
Zn78         O89   2.051       .  S
Zn78         O90   2.058       .  S
O80          C92   1.275       .  A
O81          C93   1.276       .  A
O82          C94   1.278       .  A
O83          C92   1.277       .  A
O84          C94   1.275       .  A
O85          C93   1.278       .  A
O86          C95   1.278       .  A
O87          C96   1.276       .  A
O88          C95   1.277       .  A
O89          C96   1.278       .  A
O90          C97   1.278       .  A
O91          C97   1.274       .  A
C92        C1261   1.492       .  S
C93        C1294   1.493       .  S
C94        C1239   1.495       .  S
C95        C1283   1.494       .  S
C96        C1481   1.494       .  S
C97        C1206   1.490       .  S
N98         C102   1.369       .  A
N98          C99   1.370       .  A
N98        C1184   1.460       .  S
C99        C1228   1.484       .  S
C99         C100   1.381       .  A
C100        C101   1.364       .  A
C100        H103   1.083       .  S
C101        C102   1.381       .  A
C101        H104   1.082       .  S
C102       C1360   1.489       .  S
N105        C109   1.369       .  A
N105        C106   1.367       .  A
N105       C1140   1.457       .  S
C106       C1250   1.482       .  S
C106        C107   1.379       .  A
C107        C108   1.364       .  A
C107        H110   1.083   1_545  S
C108        C109   1.381       .  A
C108        H111   1.083       .  S
C109       C1162   1.482       .  S
N112        C116   1.366       .  A
N112        C113   1.367   1_554  A
N112       C1096   1.450       .  S
C113       C1272   1.478       .  S
C113        C114   1.380       .  A
C114        C115   1.364   1_556  A
C114        H117   1.083       .  S
C115        C116   1.380       .  A
C115        H118   1.083       .  S
C116       C1129   1.477       .  S
Zn119       O123   1.964       .  S
Zn119       O124   2.035       .  S
Zn119       O128   2.033       .  S
Zn119       O135   2.007       .  S
Zn120       O123   1.967   1_455  S
Zn120       O125   2.019       .  S
Zn120       O127   2.037       .  S
Zn120       O131   2.022       .  S
Zn121       O123   1.975   1_455  S
Zn121       O126   2.048       .  S
Zn121       O129   2.029       .  S
Zn121       O132   2.040       .  S
Zn122       O123   1.982       .  S
Zn122       O130   2.039   1_655  S
Zn122       O133   2.047   1_655  S
Zn122       O134   2.042       .  S
O124        C136   1.275       .  A
O125        C137   1.275       .  A
O126        C138   1.277   1_455  A
O127        C136   1.276   1_455  A
O128        C138   1.276       .  A
O129        C137   1.276       .  A
O130        C139   1.277       .  A
O131        C140   1.274       .  A
O132        C139   1.277       .  A
O133        C140   1.277       .  A
O134        C141   1.277       .  A
O135        C141   1.274       .  A
C136       C1052   1.492       .  S
C137        C986   1.485       .  S
C138       C1030   1.494       .  S
C139       C1613   1.493       .  S
C140       C1019   1.491       .  S
C141       C1074   1.485       .  S
Zn142       O146   1.974       .  S
Zn142       O147   2.030       .  S
Zn142       O151   2.020       .  S
Zn142       O158   2.046       .  S
Zn143       O146   1.973       .  S
Zn143       O148   2.029       .  S
Zn143       O150   2.032       .  S
Zn143       O154   2.051       .  S
Zn144       O146   1.989       .  S
Zn144       O149   2.057       .  S
Zn144       O152   2.057       .  S
Zn144       O155   2.067       .  S
Zn145       O146   1.956       .  S
Zn145       O153   1.999       .  S
Zn145       O156   2.023       .  S
Zn145       O157   2.020       .  S
O147        C159   1.276       .  A
O148        C160   1.276       .  A
O149        C161   1.279       .  A
O150        C159   1.276       .  A
O151        C161   1.274       .  A
O152        C160   1.279       .  A
O153        C162   1.273       .  A
O154        C163   1.277       .  A
O155        C162   1.279       .  A
O156        C163   1.274       .  A
O157        C164   1.274       .  A
O158        C164   1.277       .  A
C159        C964   1.488       .  S
C160        C898   1.494       .  S
C161       C1118   1.492       .  S
C162        C876   1.491       .  S
C163        C942   1.493       .  S
C164        C920   1.491       .  S
N165        C169   1.364       .  A
N165        C166   1.364       .  A
N165       C1547   1.450       .  S
C166        C931   1.475       .  S
C166        C167   1.380       .  A
C167        C168   1.365       .  A
C167        H170   1.083       .  S
C168        C169   1.381       .  A
C168        H171   1.082       .  S
C169       C1393   1.479       .  S
N172        C176   1.368       .  A
N172        C173   1.367       .  A
N172        C865   1.455       .  S
C173        C953   1.485       .  S
C173        C174   1.381       .  A
C174        C175   1.364       .  A
C174        H177   1.083   1_455  S
C175        C176   1.380       .  A
C175        H178   1.083       .  S
C176       C1008   1.479       .  S
Zn179       O183   1.961   1_565  S
Zn179       O184   2.031       .  S
Zn179       O188   2.037       .  S
Zn179       O195   1.995       .  S
Zn180       O183   1.967       .  S
Zn180       O185   2.019       .  S
Zn180       O187   2.036       .  S
Zn180       O191   2.028       .  S
Zn181       O183   1.974       .  S
Zn181       O186   2.054       .  S
Zn181       O189   2.026       .  S
Zn181       O192   2.030       .  S
Zn182       O183   1.987   1_565  S
Zn182       O190   2.048   1_565  S
Zn182       O193   2.059   1_565  S
Zn182       O194   2.050       .  S
O184        C196   1.275       .  A
O185        C197   1.275       .  A
O186        C198   1.277   1_545  A
O187        C196   1.276   1_545  A
O188        C198   1.276       .  A
O189        C197   1.276       .  A
O190        C199   1.278       .  A
O191        C200   1.274       .  A
O192        C199   1.276       .  A
O193        C200   1.278       .  A
O194        C201   1.278       .  A
O195        C201   1.273       .  A
C196       C1558   1.492       .  S
C197        C766   1.484       .  S
C198        C821   1.497       .  S
C199        C788   1.492       .  S
C200       C1173   1.496       .  S
C201        C832   1.485       .  S
Zn202       O206   1.971       .  S
Zn202       O207   2.031       .  S
Zn202       O211   2.031       .  S
Zn202       O218   2.050       .  S
Zn203       O206   1.972       .  S
Zn203       O208   2.031       .  S
Zn203       O210   2.033       .  S
Zn203       O214   2.042       .  S
Zn204       O206   1.976       .  S
Zn204       O209   2.033       .  S
Zn204       O212   2.041       .  S
Zn204       O215   2.032       .  S
Zn205       O206   1.960       .  S
Zn205       O213   2.011       .  S
Zn205       O216   2.015       .  S
Zn205       O217   2.021       .  S
O207        C219   1.276       .  A
O208        C220   1.275       .  A
O209        C221   1.276       .  A
O210        C219   1.277       .  A
O211        C221   1.276       .  A
O212        C220   1.277       .  A
O213        C222   1.273       .  A
O214        C223   1.277       .  A
O215        C222   1.275       .  A
O216        C223   1.274       .  A
O217        C224   1.274       .  A
O218        C224   1.277       .  A
C219        C656   1.489       .  S
C220        C700   1.491       .  S
C221        C689   1.487       .  S
C222        C755   1.483       .  S
C223        C733   1.488       .  S
C224       C1525   1.492       .  S
N225        C229   1.365       .  A
N225        C226   1.365       .  A
N225        C634   1.453       .  S
C226        C711   1.482       .  S
C226        C227   1.381       .  A
C227        C228   1.365       .  A
C227        H230   1.083       .  S
C228        C229   1.380       .  A
C228        H231   1.083       .  S
C229       C1327   1.477       .  S
N232        C236   1.368       .  A
N232        C233   1.368       .  A
N232       C1151   1.459       .  S
C233        C678   1.483       .  S
C233        C234   1.382       .  A
C234        C235   1.364       .  A
C234        H237   1.083       .  S
C235        C236   1.380       .  A
C235        H238   1.082       .  S
C236       C1041   1.488       .  S
Zn239       O243   1.968       .  S
Zn239       O244   2.035       .  S
Zn239       O248   2.023       .  S
Zn239       O255   2.037       .  S
Zn240       O243   1.970       .  S
Zn240       O245   2.019       .  S
Zn240       O247   2.028       .  S
Zn240       O251   2.033       .  S
Zn241       O243   1.986       .  S
Zn241       O246   2.052       .  S
Zn241       O249   2.048       .  S
Zn241       O252   2.060       .  S
Zn242       O243   1.963       .  S
Zn242       O250   2.010       .  S
Zn242       O253   2.023       .  S
Zn242       O254   2.033       .  S
O244        C256   1.276       .  A
O245        C257   1.274       .  A
O246        C258   1.278       .  A
O247        C256   1.275       .  A
O248        C258   1.275       .  A
O249        C257   1.278       .  A
O250        C259   1.274       .  A
O251        C260   1.275       .  A
O252        C259   1.279       .  A
O253        C260   1.275       .  A
O254        C261   1.275       .  A
O255        C261   1.276       .  A
C256        C623   1.489       .  S
C257        C557   1.490       .  S
C258        C524   1.492       .  S
C259        C513   1.491       .  S
C260        C590   1.488       .  S
C261        C568   1.491       .  S
N262        C266   1.366       .  A
N262        C263   1.367       .  A
N262       C1591   1.458       .  S
C263        C601   1.478       .  S
C263        C264   1.381       .  A
C264        C265   1.364       .  A
C264        H267   1.083       .  S
C265        C266   1.380       .  A
C265        H268   1.083       .  S
C266       C1349   1.484       .  S
N269        C273   1.367       .  A
N269        C270   1.366       .  A
N269        C854   1.452       .  S
C270        C579   1.481       .  S
C270        C271   1.380       .  A
C271        C272   1.366       .  A
C271        H274   1.083       .  S
C272        C273   1.382       .  A
C272        H275   1.082       .  S
C273        C810   1.488       .  S
N276        C280   1.363       .  A
N276        C277   1.362   1_554  A
N276       C1107   1.448       .  S
C277        C722   1.474       .  S
C277        C278   1.380   1_556  A
C278        C279   1.367       .  A
C278        H281   1.083   1_554  S
C279        C280   1.381       .  A
C279        H282   1.083       .  S
C280        C546   1.474       .  S
Zn283       O287   1.959       .  S
Zn283       O288   2.022       .  S
Zn283       O292   1.999       .  S
Zn283       O299   2.027       .  S
Zn284       O287   1.980       .  S
Zn284       O289   2.048       .  S
Zn284       O291   2.055       .  S
Zn284       O295   2.042       .  S
Zn285       O287   1.982       .  S
Zn285       O290   2.057       .  S
Zn285       O293   2.045       .  S
Zn285       O296   2.042       .  S
Zn286       O287   1.977       .  S
Zn286       O294   2.035       .  S
Zn286       O297   2.025       .  S
Zn286       O298   2.055       .  S
O288        C300   1.274       .  A
O289        C301   1.277       .  A
O290        C302   1.278       .  A
O291        C300   1.278       .  A
O292        C302   1.273       .  A
O293        C301   1.278       .  A
O294        C303   1.276       .  A
O295        C304   1.278       .  A
O296        C303   1.277       .  A
O297        C304   1.276       .  A
O298        C305   1.277       .  A
O299        C305   1.275       .  A
C300        C370   1.493       .  S
C301        C425   1.496       .  S
C302        C480   1.489       .  S
C303        C436   1.492       .  S
C304        C458   1.489       .  S
C305        C403   1.495       .  S
N306        C310   1.367       .  A
N306        C307   1.368       .  A
N306       C1195   1.458       .  S
C307       C1063   1.482       .  S
C307        C308   1.381       .  A
C308        C309   1.365       .  A
C308        H311   1.083       .  S
C309        C310   1.382       .  A
C309        H312   1.082   1_655  S
C310        C392   1.489       .  S
N313        C317   1.366       .  A
N313        C314   1.364       .  A
N313        C645   1.451       .  S
C314        C799   1.482       .  S
C314        C315   1.379       .  A
C315        C316   1.365       .  A
C315        H318   1.082       .  S
C316        C317   1.382       .  A
C316        H319   1.083       .  S
C317        C381   1.483       .  S
N320        C324   1.367   1_554  A
N320        C321   1.368       .  A
N320       C1503   1.453       .  S
C321        C909   1.479   1_455  S
C321        C322   1.380       .  A
C322        C323   1.365       .  A
C322        H325   1.083       .  S
C323        C324   1.380   1_554  A
C323        H326   1.083   1_554  S
C324        C447   1.480       .  S
N327        C331   1.366       .  A
N327        C328   1.368       .  A
N327       C1459   1.456       .  S
C328        C535   1.482   1_565  S
C328        C329   1.382       .  A
C329        C330   1.365       .  A
C329        H332   1.083       .  S
C330        C331   1.379       .  A
C330        H333   1.082       .  S
C331        C414   1.483   1_554  S
C334       C1734   1.489       .  S
C334        N335   1.361   1_545  A
C334        N339   1.361   1_655  A
N335        C336   1.361       .  A
C336        C887   1.490       .  S
C336        N337   1.361   1_655  A
N337        C338   1.361   1_565  A
C338        C502   1.490       .  S
C338        N339   1.361       .  A
C340       C1415   1.486       .  S
C340        N341   1.360       .  A
C340        N345   1.359       .  A
N341        C342   1.360       .  A
C342       C1085   1.484       .  S
C342        N343   1.359       .  A
N343        C344   1.360       .  A
C344        C777   1.485       .  S
C344        N345   1.359       .  A
C346       C1437   1.484       .  S
C346        N347   1.358       .  A
C346        N351   1.359       .  A
N347        C348   1.359       .  A
C348        C997   1.486       .  S
C348        N349   1.361       .  A
N349        C350   1.361       .  A
C350        C843   1.486       .  S
C350        N351   1.359       .  A
C352        C491   1.491       .  S
C352        N353   1.361   1_565  A
C352        N357   1.363   1_455  A
N353        C354   1.360       .  A
C354        C667   1.489       .  S
C354        N355   1.360   1_455  A
N355        C356   1.361   1_545  A
C356       C1217   1.491       .  S
C356        N357   1.363       .  A
C358        C469   1.488       .  S
C358        N359   1.363       .  A
C358        N363   1.358       .  A
N359        C360   1.363       .  A
C360       C1305   1.492       .  S
C360        N361   1.362       .  A
N361        C362   1.361       .  A
C362        C744   1.487       .  S
C362        N363   1.358       .  A
C364       C1723   1.489       .  S
C364        N365   1.360       .  A
C364        N369   1.362       .  A
N365        C366   1.360       .  A
C366        C975   1.488       .  S
C366        N367   1.360       .  A
N367        C368   1.361       .  A
C368        C612   1.490       .  S
C368        N369   1.361       .  A
C370        C371   1.408       .  A
C370        C375   1.411       .  A
C371        C372   1.403       .  A
C371        H384   1.083       .  S
C372        C373   1.403       .  A
C372        H385   1.083       .  S
C373        C374   1.401       .  A
C373        C376   1.452       .  S
C374        C375   1.403       .  A
C374        H386   1.083       .  S
C375        H387   1.083       .  S
C376        C377   1.213       .  T
C377        C378   1.451   1_565  S
C378        C379   1.403       .  A
C378        C383   1.401       .  A
C379        C380   1.404       .  A
C379        H388   1.083       .  S
C380        C381   1.406       .  A
C380        H389   1.083       .  S
C381        C382   1.407       .  A
C382        C383   1.401       .  A
C382        H390   1.083       .  S
C383        H391   1.083       .  S
C392        C393   1.407       .  A
C392        C397   1.406       .  A
C393        C394   1.399   1_655  A
C393        H406   1.083   1_655  S
C394        C395   1.400       .  A
C394        H407   1.084       .  S
C395        C396   1.405   1_455  A
C395        C398   1.452       .  S
C396        C397   1.407       .  A
C396        H408   1.083       .  S
C397        H409   1.083       .  S
C398        C399   1.214       .  T
C399        C400   1.452       .  S
C400        C401   1.403       .  A
C400        C405   1.401       .  A
C401        C402   1.406       .  A
C401        H410   1.083       .  S
C402        C403   1.410       .  A
C402        H411   1.083       .  S
C403        C404   1.410       .  A
C404        C405   1.401       .  A
C404        H412   1.083       .  S
C405        H413   1.084       .  S
C414        C415   1.405       .  A
C414        C419   1.405       .  A
C415        C416   1.401       .  A
C415        H428   1.083       .  S
C416        C417   1.401       .  A
C416        H429   1.083       .  S
C417        C418   1.405       .  A
C417        C420   1.453       .  S
C418        C419   1.406       .  A
C418        H430   1.083       .  S
C419        H431   1.083       .  S
C420        C421   1.214       .  T
C421        C422   1.454       .  S
C422        C423   1.402       .  A
C422        C427   1.402       .  A
C423        C424   1.403       .  A
C423        H432   1.083       .  S
C424        C425   1.409       .  A
C424        H433   1.083       .  S
C425        C426   1.411       .  A
C426        C427   1.406       .  A
C426        H434   1.083       .  S
C427        H435   1.083       .  S
C436        C437   1.410       .  A
C436        C441   1.408       .  A
C437        C438   1.404       .  A
C437        H450   1.083       .  S
C438        C439   1.402       .  A
C438        H451   1.083       .  S
C439        C440   1.402       .  A
C439        C442   1.451       .  S
C440        C441   1.402       .  A
C440        H452   1.083       .  S
C441        H453   1.083       .  S
C442        C443   1.213       .  T
C443        C444   1.451       .  S
C444        C445   1.401       .  A
C444        C449   1.404       .  A
C445        C446   1.400       .  A
C445        H454   1.083       .  S
C446        C447   1.406       .  A
C446        H455   1.083       .  S
C447        C448   1.405       .  A
C448        C449   1.405       .  A
C448        H456   1.083       .  S
C449        H457   1.083       .  S
C458        C459   1.408       .  A
C458        C463   1.410       .  A
C459        C460   1.401       .  A
C459        H472   1.083       .  S
C460        C461   1.401       .  A
C460        H473   1.083       .  S
C461        C462   1.400       .  A
C461        C464   1.446       .  S
C462        C463   1.401       .  A
C462        H474   1.083       .  S
C463        H475   1.083       .  S
C464        C465   1.210       .  T
C465        C466   1.446       .  S
C466        C467   1.400       .  A
C466        C471   1.401       .  A
C467        C468   1.400       .  A
C467        H476   1.084       .  S
C468        C469   1.410       .  A
C468        H477   1.083       .  S
C469        C470   1.407       .  A
C470        C471   1.402       .  A
C470        H478   1.083       .  S
C471        H479   1.083       .  S
C480        C481   1.409       .  A
C480        C485   1.409       .  A
C481        C482   1.396       .  A
C481        H494   1.083       .  S
C482        C483   1.398       .  A
C482        H495   1.084       .  S
C483        C484   1.404       .  A
C483        C486   1.447       .  S
C484        C485   1.406       .  A
C484        H496   1.083       .  S
C485        H497   1.083       .  S
C486        C487   1.210       .  T
C487        C488   1.447       .  S
C488        C489   1.400       .  A
C488        C493   1.402       .  A
C489        C490   1.400       .  A
C489        H498   1.084       .  S
C490        C491   1.409       .  A
C490        H499   1.083   1_565  S
C491        C492   1.409       .  A
C492        C493   1.403       .  A
C492        H500   1.083   1_455  S
C493        H501   1.083       .  S
C502        C503   1.409       .  A
C502        C507   1.409       .  A
C503        C504   1.401       .  A
C503        H516   1.083   1_545  S
C504        C505   1.401       .  A
C504        H517   1.083       .  S
C505        C506   1.401       .  A
C505        C508   1.448       .  S
C506        C507   1.402       .  A
C506        H518   1.083       .  S
C507        H519   1.083       .  S
C508        C509   1.211       .  T
C509        C510   1.448       .  S
C510        C511   1.403       .  A
C510        C515   1.399       .  A
C511        C512   1.406       .  A
C511        H520   1.083       .  S
C512        C513   1.409       .  A
C512        H521   1.083       .  S
C513        C514   1.410       .  A
C514        C515   1.398       .  A
C514        H522   1.083       .  S
C515        H523   1.084       .  S
C524        C525   1.409       .  A
C524        C529   1.410       .  A
C525        C526   1.405       .  A
C525        H538   1.083       .  S
C526        C527   1.403       .  A
C526        H539   1.083       .  S
C527        C528   1.400       .  A
C527        C530   1.452       .  S
C528        C529   1.401       .  A
C528        H540   1.083       .  S
C529        H541   1.083       .  S
C530        C531   1.213       .  T
C531        C532   1.452       .  S
C532        C533   1.402       .  A
C532        C537   1.403       .  A
C533        C534   1.402       .  A
C533        H542   1.083       .  S
C534        C535   1.406       .  A
C534        H543   1.083   1_545  S
C535        C536   1.406       .  A
C536        C537   1.404       .  A
C536        H544   1.083       .  S
C537        H545   1.083       .  S
C546        C547   1.405       .  A
C546        C551   1.405       .  A
C547        C548   1.401       .  A
C547        H560   1.083       .  S
C548        C549   1.401       .  A
C548        H561   1.083       .  S
C549        C550   1.401       .  A
C549        C552   1.446       .  S
C550        C551   1.401       .  A
C550        H562   1.083       .  S
C551        H563   1.083       .  S
C552        C553   1.210       .  T
C553        C554   1.447       .  S
C554        C555   1.400       .  A
C554        C559   1.402       .  A
C555        C556   1.401       .  A
C555        H564   1.083       .  S
C556        C557   1.410       .  A
C556        H565   1.083       .  S
C557        C558   1.408       .  A
C558        C559   1.402       .  A
C558        H566   1.083       .  S
C559        H567   1.083       .  S
C568        C569   1.408       .  A
C568        C573   1.410       .  A
C569        C570   1.401       .  A
C569        H582   1.083       .  S
C570        C571   1.401       .  A
C570        H583   1.083       .  S
C571        C572   1.402       .  A
C571        C574   1.451       .  S
C572        C573   1.404       .  A
C572        H584   1.083       .  S
C573        H585   1.083       .  S
C574        C575   1.213       .  T
C575        C576   1.450   1_545  S
C576        C577   1.403       .  A
C576        C581   1.401       .  A
C577        C578   1.404       .  A
C577        H586   1.083   1_565  S
C578        C579   1.406       .  A
C578        H587   1.083       .  S
C579        C580   1.406       .  A
C580        C581   1.402       .  A
C580        H588   1.083       .  S
C581        H589   1.083       .  S
C590        C591   1.408       .  A
C590        C595   1.409       .  A
C591        C592   1.399       .  A
C591        H604   1.083       .  S
C592        C593   1.400       .  A
C592        H605   1.084       .  S
C593        C594   1.402       .  A
C593        C596   1.446       .  S
C594        C595   1.403       .  A
C594        H606   1.083       .  S
C595        H607   1.083       .  S
C596        C597   1.210       .  T
C597        C598   1.446       .  S
C598        C599   1.402       .  A
C598        C603   1.401       .  A
C599        C600   1.402       .  A
C599        H608   1.083       .  S
C600        C601   1.406       .  A
C600        H609   1.083       .  S
C601        C602   1.405       .  A
C602        C603   1.400       .  A
C602        H610   1.083       .  S
C603        H611   1.084       .  S
C612        C613   1.409       .  A
C612        C617   1.409       .  A
C613        C614   1.401       .  A
C613        H626   1.083       .  S
C614        C615   1.400       .  A
C614        H627   1.083       .  S
C615        C616   1.401       .  A
C615        C618   1.447       .  S
C616        C617   1.402       .  A
C616        H628   1.083       .  S
C617        H629   1.083       .  S
C618        C619   1.210       .  T
C619        C620   1.447       .  S
C620        C621   1.401       .  A
C620        C625   1.400       .  A
C621        C622   1.402       .  A
C621        H630   1.083       .  S
C622        C623   1.409       .  A
C622        H631   1.083       .  S
C623        C624   1.409       .  A
C624        C625   1.401       .  A
C624        H632   1.083       .  S
C625        H633   1.083       .  S
C634        C635   1.409       .  A
C634        C639   1.409       .  A
C635        C636   1.408       .  A
C635        H648   1.080       .  S
C636        C637   1.405       .  A
C636        H649   1.083       .  S
C637        C638   1.400       .  A
C637        C640   1.456       .  S
C638        C639   1.401       .  A
C638        H650   1.083       .  S
C639        H651   1.082       .  S
C640        C641   1.216       .  T
C641        C642   1.456       .  S
C642        C643   1.406       .  A
C642        C647   1.399       .  A
C643        C644   1.409       .  A
C643        H652   1.083       .  S
C644        C645   1.407       .  A
C644        H653   1.081       .  S
C645        C646   1.410       .  A
C646        C647   1.400       .  A
C646        H654   1.082       .  S
C647        H655   1.084       .  S
C656        C657   1.409       .  A
C656        C661   1.409       .  A
C657        C658   1.401       .  A
C657        H670   1.083       .  S
C658        C659   1.401       .  A
C658        H671   1.083       .  S
C659        C660   1.401       .  A
C659        C662   1.447       .  S
C660        C661   1.402       .  A
C660        H672   1.083       .  S
C661        H673   1.083       .  S
C662        C663   1.210       .  T
C663        C664   1.447       .  S
C664        C665   1.401       .  A
C664        C669   1.400       .  A
C665        C666   1.402       .  A
C665        H674   1.083       .  S
C666        C667   1.409       .  A
C666        H675   1.083       .  S
C667        C668   1.408       .  A
C668        C669   1.401       .  A
C668        H676   1.083       .  S
C669        H677   1.083       .  S
C678        C679   1.407       .  A
C678        C683   1.406       .  A
C679        C680   1.401       .  A
C679        H692   1.083       .  S
C680        C681   1.401       .  A
C680        H693   1.083       .  S
C681        C682   1.402       .  A
C681        C684   1.449   1_655  S
C682        C683   1.403       .  A
C682        H694   1.083   1_655  S
C683        H695   1.083       .  S
C684        C685   1.211       .  T
C685        C686   1.449       .  S
C686        C687   1.402       .  A
C686        C691   1.401       .  A
C687        C688   1.402       .  A
C687        H696   1.083       .  S
C688        C689   1.408       .  A
C688        H697   1.083       .  S
C689        C690   1.408       .  A
C690        C691   1.401       .  A
C690        H698   1.083       .  S
C691        H699   1.083       .  S
C700        C701   1.409       .  A
C700        C705   1.410       .  A
C701        C702   1.403       .  A
C701        H714   1.083       .  S
C702        C703   1.402       .  A
C702        H715   1.083       .  S
C703        C704   1.400       .  A
C703        C706   1.449       .  S
C704        C705   1.402       .  A
C704        H716   1.083       .  S
C705        H717   1.083       .  S
C706        C707   1.212       .  T
C707        C708   1.449       .  S
C708        C709   1.404       .  A
C708        C713   1.400       .  A
C709        C710   1.405       .  A
C709        H718   1.083       .  S
C710        C711   1.405       .  A
C710        H719   1.083       .  S
C711        C712   1.406       .  A
C712        C713   1.398       .  A
C712        H720   1.083       .  S
C713        H721   1.084       .  S
C722        C723   1.404       .  A
C722        C727   1.404       .  A
C723        C724   1.403       .  A
C723        H736   1.083       .  S
C724        C725   1.403       .  A
C724        H737   1.083       .  S
C725        C726   1.400       .  A
C725        C728   1.445       .  S
C726        C727   1.398       .  A
C726        H738   1.084       .  S
C727        H739   1.083       .  S
C728        C729   1.209       .  T
C729        C730   1.445       .  S
C730        C731   1.402       .  A
C730        C735   1.399       .  A
C731        C732   1.402       .  A
C731        H740   1.083       .  S
C732        C733   1.408       .  A
C732        H741   1.083       .  S
C733        C734   1.409       .  A
C734        C735   1.399       .  A
C734        H742   1.083       .  S
C735        H743   1.084       .  S
C744        C745   1.408       .  A
C744        C749   1.410       .  A
C745        C746   1.401       .  A
C745        H758   1.083       .  S
C746        C747   1.400       .  A
C746        H759   1.083       .  S
C747        C748   1.399       .  A
C747        C750   1.442       .  S
C748        C749   1.399       .  A
C748        H760   1.084       .  S
C749        H761   1.083       .  S
C750        C751   1.207       .  T
C751        C752   1.442       .  S
C752        C753   1.399       .  A
C752        C757   1.401       .  A
C753        C754   1.397       .  A
C753        H762   1.084       .  S
C754        C755   1.407       .  A
C754        H763   1.083       .  S
C755        C756   1.408       .  A
C756        C757   1.402       .  A
C756        H764   1.083       .  S
C757        H765   1.083       .  S
C766        C767   1.408       .  A
C766        C771   1.408       .  A
C767        C768   1.400       .  A
C767        H780   1.083       .  S
C768        C769   1.400       .  A
C768        H781   1.083       .  S
C769        C770   1.399       .  A
C769        C772   1.441       .  S
C770        C771   1.398       .  A
C770        H782   1.084       .  S
C771        H783   1.083       .  S
C772        C773   1.207       .  T
C773        C774   1.441       .  S
C774        C775   1.400       .  A
C774        C779   1.399       .  A
C775        C776   1.399       .  A
C775        H784   1.084       .  S
C776        C777   1.409       .  A
C776        H785   1.083       .  S
C777        C778   1.409       .  A
C778        C779   1.399       .  A
C778        H786   1.083       .  S
C779        H787   1.084       .  S
C788        C789   1.410       .  A
C788        C793   1.408       .  A
C789        C790   1.402       .  A
C789        H802   1.083       .  S
C790        C791   1.400       .  A
C790        H803   1.083       .  S
C791        C792   1.402       .  A
C791        C794   1.450       .  S
C792        C793   1.403       .  A
C792        H804   1.083       .  S
C793        H805   1.083       .  S
C794        C795   1.212       .  T
C795        C796   1.449       .  S
C796        C797   1.400       .  A
C796        C801   1.404       .  A
C797        C798   1.398       .  A
C797        H806   1.084       .  S
C798        C799   1.405       .  A
C798        H807   1.083       .  S
C799        C800   1.406       .  A
C800        C801   1.406       .  A
C800        H808   1.083       .  S
C801        H809   1.083       .  S
C810        C811   1.407       .  A
C810        C815   1.406       .  A
C811        C812   1.399       .  A
C811        H824   1.083       .  S
C812        C813   1.400       .  A
C812        H825   1.084       .  S
C813        C814   1.406       .  A
C813        C816   1.454       .  S
C814        C815   1.408       .  A
C814        H826   1.083       .  S
C815        H827   1.083       .  S
C816        C817   1.215       .  T
C817        C818   1.455       .  S
C818        C819   1.404       .  A
C818        C823   1.401       .  A
C819        C820   1.407       .  A
C819        H828   1.083       .  S
C820        C821   1.410       .  A
C820        H829   1.083   1_565  S
C821        C822   1.410       .  A
C822        C823   1.403       .  A
C822        H830   1.083       .  S
C823        H831   1.083       .  S
C832        C833   1.409       .  A
C832        C837   1.408       .  A
C833        C834   1.394       .  A
C833        H846   1.083       .  S
C834        C835   1.397       .  A
C834        H847   1.084       .  S
C835        C836   1.402       .  A
C835        C838   1.442       .  S
C836        C837   1.404       .  A
C836        H848   1.083       .  S
C837        H849   1.083       .  S
C838        C839   1.207       .  T
C839        C840   1.442       .  S
C840        C841   1.400       .  A
C840        C845   1.399       .  A
C841        C842   1.399       .  A
C841        H850   1.083       .  S
C842        C843   1.408       .  A
C842        H851   1.083       .  S
C843        C844   1.410       .  A
C844        C845   1.399       .  A
C844        H852   1.083       .  S
C845        H853   1.084       .  S
C854        C855   1.410       .  A
C854        C859   1.408       .  A
C855        C856   1.402       .  A
C855        H868   1.082       .  S
C856        C857   1.401       .  A
C856        H869   1.083       .  S
C857        C858   1.405       .  A
C857        C860   1.457       .  S
C858        C859   1.408       .  A
C858        H870   1.083       .  S
C859        H871   1.080       .  S
C860        C861   1.216       .  T
C861        C862   1.457       .  S
C862        C863   1.400       .  A
C862        C867   1.404       .  A
C863        C864   1.402       .  A
C863        H872   1.083       .  S
C864        C865   1.411       .  A
C864        H873   1.082       .  S
C865        C866   1.409       .  A
C866        C867   1.408       .  A
C866        H874   1.079       .  S
C867        H875   1.083       .  S
C876        C877   1.409       .  A
C876        C881   1.410       .  A
C877        C878   1.407       .  A
C877        H890   1.083       .  S
C878        C879   1.404       .  A
C878        H891   1.083       .  S
C879        C880   1.397       .  A
C879        C882   1.448       .  S
C880        C881   1.396       .  A
C880        H892   1.084       .  S
C881        H893   1.083       .  S
C882        C883   1.211       .  T
C883        C884   1.448       .  S
C884        C885   1.401       .  A
C884        C889   1.401       .  A
C885        C886   1.402       .  A
C885        H894   1.083       .  S
C886        C887   1.409       .  A
C886        H895   1.083   1_655  S
C887        C888   1.409       .  A
C888        C889   1.401       .  A
C888        H896   1.083       .  S
C889        H897   1.083       .  S
C898        C899   1.409       .  A
C898        C903   1.410       .  A
C899        C900   1.405       .  A
C899        H912   1.083       .  S
C900        C901   1.403       .  A
C900        H913   1.083       .  S
C901        C902   1.401       .  A
C901        C904   1.453       .  S
C902        C903   1.403       .  A
C902        H914   1.083       .  S
C903        H915   1.083       .  S
C904        C905   1.214       .  T
C905        C906   1.452       .  S
C906        C907   1.403       .  A
C906        C911   1.402       .  A
C907        C908   1.404       .  A
C907        H916   1.083       .  S
C908        C909   1.405       .  A
C908        H917   1.083   1_655  S
C909        C910   1.406       .  A
C910        C911   1.402       .  A
C910        H918   1.083       .  S
C911        H919   1.083       .  S
C920        C921   1.410       .  A
C920        C925   1.408       .  A
C921        C922   1.401       .  A
C921        H934   1.083       .  S
C922        C923   1.400       .  A
C922        H935   1.083       .  S
C923        C924   1.402       .  A
C923        C926   1.448       .  S
C924        C925   1.403       .  A
C924        H936   1.083       .  S
C925        H937   1.083       .  S
C926        C927   1.211       .  T
C927        C928   1.448       .  S
C928        C929   1.401       .  A
C928        C933   1.402       .  A
C929        C930   1.401       .  A
C929        H938   1.083       .  S
C930        C931   1.405       .  A
C930        H939   1.083       .  S
C931        C932   1.405       .  A
C932        C933   1.402       .  A
C932        H940   1.083       .  S
C933        H941   1.083       .  S
C942        C943   1.410       .  A
C942        C947   1.409       .  A
C943        C944   1.401       .  A
C943        H956   1.083       .  S
C944        C945   1.400       .  A
C944        H957   1.083       .  S
C945        C946   1.403       .  A
C945        C948   1.451       .  S
C946        C947   1.405       .  A
C946        H958   1.083       .  S
C947        H959   1.083       .  S
C948        C949   1.213       .  T
C949        C950   1.450   1_655  S
C950        C951   1.405       .  A
C950        C955   1.399   1_455  A
C951        C952   1.407       .  A
C951        H960   1.083       .  S
C952        C953   1.406       .  A
C952        H961   1.083       .  S
C953        C954   1.406       .  A
C954        C955   1.398   1_455  A
C954        H962   1.083       .  S
C955        H963   1.084       .  S
C964        C965   1.409       .  A
C964        C969   1.409       .  A
C965        C966   1.401       .  A
C965        H978   1.083       .  S
C966        C967   1.400       .  A
C966        H979   1.083       .  S
C967        C968   1.401       .  A
C967        C970   1.446       .  S
C968        C969   1.401       .  A
C968        H980   1.083       .  S
C969        H981   1.083       .  S
C970        C971   1.210       .  T
C971        C972   1.446       .  S
C972        C973   1.400       .  A
C972        C977   1.400       .  A
C973        C974   1.400       .  A
C973        H982   1.083       .  S
C974        C975   1.408       .  A
C974        H983   1.083       .  S
C975        C976   1.409       .  A
C976        C977   1.401       .  A
C976        H984   1.083       .  S
C977        H985   1.083       .  S
C986        C987   1.408       .  A
C986        C991   1.408       .  A
C987        C988   1.400       .  A
C987       H1000   1.083       .  S
C988        C989   1.401       .  A
C988       H1001   1.083       .  S
C989        C990   1.399       .  A
C989        C992   1.443       .  S
C990        C991   1.399       .  A
C990       H1002   1.084       .  S
C991       H1003   1.083       .  S
C992        C993   1.208       .  T
C993        C994   1.443       .  S
C994        C995   1.401       .  A
C994        C999   1.399       .  A
C995        C996   1.401       .  A
C995       H1004   1.083       .  S
C996        C997   1.408       .  A
C996       H1005   1.083       .  S
C997        C998   1.409       .  A
C998        C999   1.398       .  A
C998       H1006   1.083       .  S
C999       H1007   1.084       .  S
C1008      C1009   1.406       .  A
C1008      C1013   1.406       .  A
C1009      C1010   1.401       .  A
C1009      H1022   1.083       .  S
C1010      C1011   1.401       .  A
C1010      H1023   1.083       .  S
C1011      C1012   1.402       .  A
C1011      C1014   1.450       .  S
C1012      C1013   1.403       .  A
C1012      H1024   1.083       .  S
C1013      H1025   1.083       .  S
C1014      C1015   1.212       .  T
C1015      C1016   1.450       .  S
C1016      C1017   1.403       .  A
C1016      C1021   1.400       .  A
C1017      C1018   1.405       .  A
C1017      H1026   1.083       .  S
C1018      C1019   1.409       .  A
C1018      H1027   1.083       .  S
C1019      C1020   1.409       .  A
C1020      C1021   1.400       .  A
C1020      H1028   1.083       .  S
C1021      H1029   1.083       .  S
C1030      C1031   1.409       .  A
C1030      C1035   1.410       .  A
C1031      C1032   1.402       .  A
C1031      H1044   1.083       .  S
C1032      C1033   1.401       .  A
C1032      H1045   1.084       .  S
C1033      C1034   1.402       .  A
C1033      C1036   1.453       .  S
C1034      C1035   1.405       .  A
C1034      H1046   1.083       .  S
C1035      H1047   1.083   1_655  S
C1036      C1037   1.214       .  T
C1037      C1038   1.452       .  S
C1038      C1039   1.399       .  A
C1038      C1043   1.406       .  A
C1039      C1040   1.398       .  A
C1039      H1048   1.084       .  S
C1040      C1041   1.406       .  A
C1040      H1049   1.083       .  S
C1041      C1042   1.407       .  A
C1042      C1043   1.408       .  A
C1042      H1050   1.083       .  S
C1043      H1051   1.083       .  S
C1052      C1053   1.410       .  A
C1052      C1057   1.409       .  A
C1053      C1054   1.404       .  A
C1053      H1066   1.083       .  S
C1054      C1055   1.401       .  A
C1054      H1067   1.083       .  S
C1055      C1056   1.402       .  A
C1055      C1058   1.451       .  S
C1056      C1057   1.402       .  A
C1056      H1068   1.083       .  S
C1057      H1069   1.083   1_655  S
C1058      C1059   1.213       .  T
C1059      C1060   1.451       .  S
C1060      C1061   1.402       .  A
C1060      C1065   1.402       .  A
C1061      C1062   1.402       .  A
C1061      H1070   1.083       .  S
C1062      C1063   1.406       .  A
C1062      H1071   1.083       .  S
C1063      C1064   1.406       .  A
C1064      C1065   1.403       .  A
C1064      H1072   1.083       .  S
C1065      H1073   1.083       .  S
C1074      C1075   1.408       .  A
C1074      C1079   1.408       .  A
C1075      C1076   1.396       .  A
C1075      H1088   1.083       .  S
C1076      C1077   1.398       .  A
C1076      H1089   1.084       .  S
C1077      C1078   1.402       .  A
C1077      C1080   1.442       .  S
C1078      C1079   1.403       .  A
C1078      H1090   1.083       .  S
C1079      H1091   1.083       .  S
C1080      C1081   1.207       .  T
C1081      C1082   1.442       .  S
C1082      C1083   1.400       .  A
C1082      C1087   1.400       .  A
C1083      C1084   1.399       .  A
C1083      H1092   1.083       .  S
C1084      C1085   1.408       .  A
C1084      H1093   1.083       .  S
C1085      C1086   1.408       .  A
C1086      C1087   1.399       .  A
C1086      H1094   1.083       .  S
C1087      H1095   1.084       .  S
C1096      C1097   1.407   1_554  A
C1096      C1101   1.408       .  A
C1097      C1098   1.404       .  A
C1097      H1110   1.082       .  S
C1098      C1099   1.402   1_556  A
C1098      H1111   1.083       .  S
C1099      C1100   1.403       .  A
C1099      C1102   1.455       .  S
C1100      C1101   1.406       .  A
C1100      H1112   1.083       .  S
C1101      H1113   1.081       .  S
C1102      C1103   1.215       .  T
C1103      C1104   1.455       .  S
C1104      C1105   1.404       .  A
C1104      C1109   1.402       .  A
C1105      C1106   1.406       .  A
C1105      H1114   1.083       .  S
C1106      C1107   1.406       .  A
C1106      H1115   1.081       .  S
C1107      C1108   1.407       .  A
C1108      C1109   1.402       .  A
C1108      H1116   1.083       .  S
C1109      H1117   1.083       .  S
C1118      C1119   1.407       .  A
C1118      C1123   1.411       .  A
C1119      C1120   1.403       .  A
C1119      H1132   1.083       .  S
C1120      C1121   1.402       .  A
C1120      H1133   1.083       .  S
C1121      C1122   1.400       .  A
C1121      C1124   1.450       .  S
C1122      C1123   1.403       .  A
C1122      H1134   1.083       .  S
C1123      H1135   1.083       .  S
C1124      C1125   1.212       .  T
C1125      C1126   1.450       .  S
C1126      C1127   1.402       .  A
C1126      C1131   1.402       .  A
C1127      C1128   1.403       .  A
C1127      H1136   1.083       .  S
C1128      C1129   1.406       .  A
C1128      H1137   1.083       .  S
C1129      C1130   1.405       .  A
C1130      C1131   1.402       .  A
C1130      H1138   1.083       .  S
C1131      H1139   1.083       .  S
C1140      C1141   1.410       .  A
C1140      C1145   1.412       .  A
C1141      C1142   1.409       .  A
C1141      H1154   1.079       .  S
C1142      C1143   1.405       .  A
C1142      H1155   1.084       .  S
C1143      C1144   1.399       .  A
C1143      C1146   1.457       .  S
C1144      C1145   1.402       .  A
C1144      H1156   1.083       .  S
C1145      H1157   1.082       .  S
C1146      C1147   1.216       .  T
C1147      C1148   1.457       .  S
C1148      C1149   1.404       .  A
C1148      C1153   1.399       .  A
C1149      C1150   1.408       .  A
C1149      H1158   1.083       .  S
C1150      C1151   1.411       .  A
C1150      H1159   1.078       .  S
C1151      C1152   1.413       .  A
C1152      C1153   1.402       .  A
C1152      H1160   1.081       .  S
C1153      H1161   1.083       .  S
C1162      C1163   1.407       .  A
C1162      C1167   1.406       .  A
C1163      C1164   1.403       .  A
C1163      H1176   1.083       .  S
C1164      C1165   1.402       .  A
C1164      H1177   1.083       .  S
C1165      C1166   1.403       .  A
C1165      C1168   1.454       .  S
C1166      C1167   1.404       .  A
C1166      H1178   1.083       .  S
C1167      H1179   1.083       .  S
C1168      C1169   1.215       .  T
C1169      C1170   1.454       .  S
C1170      C1171   1.403       .  A
C1170      C1175   1.401       .  A
C1171      C1172   1.406       .  A
C1171      H1180   1.083       .  S
C1172      C1173   1.409       .  A
C1172      H1181   1.083       .  S
C1173      C1174   1.411       .  A
C1174      C1175   1.403       .  A
C1174      H1182   1.083       .  S
C1175      H1183   1.083       .  S
C1184      C1185   1.413       .  A
C1184      C1189   1.411       .  A
C1185      C1186   1.402       .  A
C1185      H1198   1.081       .  S
C1186      C1187   1.399       .  A
C1186      H1199   1.083       .  S
C1187      C1188   1.403       .  A
C1187      C1190   1.457       .  S
C1188      C1189   1.407       .  A
C1188      H1200   1.083       .  S
C1189      H1201   1.077       .  S
C1190      C1191   1.216       .  T
C1191      C1192   1.457       .  S
C1192      C1193   1.400       .  A
C1192      C1197   1.403       .  A
C1193      C1194   1.403       .  A
C1193      H1202   1.083       .  S
C1194      C1195   1.413       .  A
C1194      H1203   1.081       .  S
C1195      C1196   1.410       .  A
C1196      C1197   1.407       .  A
C1196      H1204   1.079       .  S
C1197      H1205   1.083       .  S
C1206      C1207   1.408       .  A
C1206      C1211   1.409       .  A
C1207      C1208   1.406       .  A
C1207      H1220   1.083       .  S
C1208      C1209   1.403       .  A
C1208      H1221   1.083       .  S
C1209      C1210   1.399       .  A
C1209      C1212   1.448       .  S
C1210      C1211   1.398       .  A
C1210      H1222   1.084       .  S
C1211      H1223   1.083       .  S
C1212      C1213   1.211       .  T
C1213      C1214   1.449       .  S
C1214      C1215   1.401       .  A
C1214      C1219   1.401       .  A
C1215      C1216   1.402       .  A
C1215      H1224   1.083       .  S
C1216      C1217   1.409       .  A
C1216      H1225   1.083       .  S
C1217      C1218   1.410       .  A
C1218      C1219   1.401       .  A
C1218      H1226   1.083   1_565  S
C1219      H1227   1.083       .  S
C1228      C1229   1.407       .  A
C1228      C1233   1.406       .  A
C1229      C1230   1.402       .  A
C1229      H1242   1.083       .  S
C1230      C1231   1.402       .  A
C1230      H1243   1.083       .  S
C1231      C1232   1.403       .  A
C1231      C1234   1.452       .  S
C1232      C1233   1.404       .  A
C1232      H1244   1.083       .  S
C1233      H1245   1.083       .  S
C1234      C1235   1.214       .  T
C1235      C1236   1.453       .  S
C1236      C1237   1.402       .  A
C1236      C1241   1.402       .  A
C1237      C1238   1.405       .  A
C1237      H1246   1.083       .  S
C1238      C1239   1.411       .  A
C1238      H1247   1.083       .  S
C1239      C1240   1.408       .  A
C1240      C1241   1.403       .  A
C1240      H1248   1.083       .  S
C1241      H1249   1.083       .  S
C1250      C1251   1.405       .  A
C1250      C1255   1.406       .  A
C1251      C1252   1.406       .  A
C1251      H1264   1.083       .  S
C1252      C1253   1.404       .  A
C1252      H1265   1.083       .  S
C1253      C1254   1.400       .  A
C1253      C1256   1.450   1_545  S
C1254      C1255   1.399       .  A
C1254      H1266   1.084   1_545  S
C1255      H1267   1.083       .  S
C1256      C1257   1.212       .  T
C1257      C1258   1.450       .  S
C1258      C1259   1.401       .  A
C1258      C1263   1.402       .  A
C1259      C1260   1.401       .  A
C1259      H1268   1.083       .  S
C1260      C1261   1.410       .  A
C1260      H1269   1.083       .  S
C1261      C1262   1.409       .  A
C1262      C1263   1.404       .  A
C1262      H1270   1.083       .  S
C1263      H1271   1.083       .  S
C1272      C1273   1.405       .  A
C1272      C1277   1.406       .  A
C1273      C1274   1.405       .  A
C1273      H1286   1.083       .  S
C1274      C1275   1.403       .  A
C1274      H1287   1.083       .  S
C1275      C1276   1.401       .  A
C1275      C1278   1.452       .  S
C1276      C1277   1.401       .  A
C1276      H1288   1.083       .  S
C1277      H1289   1.083       .  S
C1278      C1279   1.213       .  T
C1279      C1280   1.452       .  S
C1280      C1281   1.401       .  A
C1280      C1285   1.402       .  A
C1281      C1282   1.404       .  A
C1281      H1290   1.083       .  S
C1282      C1283   1.410       .  A
C1282      H1291   1.083       .  S
C1283      C1284   1.409       .  A
C1284      C1285   1.403       .  A
C1284      H1292   1.083       .  S
C1285      H1293   1.083       .  S
C1294      C1295   1.409       .  A
C1294      C1299   1.410       .  A
C1295      C1296   1.403       .  A
C1295      H1308   1.083       .  S
C1296      C1297   1.402       .  A
C1296      H1309   1.083       .  S
C1297      C1298   1.401       .  A
C1297      C1300   1.451       .  S
C1298      C1299   1.403       .  A
C1298      H1310   1.083       .  S
C1299      H1311   1.083       .  S
C1300      C1301   1.213       .  T
C1301      C1302   1.451       .  S
C1302      C1303   1.402       .  A
C1302      C1307   1.401       .  A
C1303      C1304   1.404       .  A
C1303      H1312   1.083       .  S
C1304      C1305   1.409       .  A
C1304      H1313   1.083       .  S
C1305      C1306   1.409       .  A
C1306      C1307   1.402       .  A
C1306      H1314   1.083       .  S
C1307      H1315   1.083       .  S
C1316      C1317   1.408       .  A
C1316      C1321   1.409       .  A
C1317      C1318   1.402       .  A
C1317      H1330   1.083       .  S
C1318      C1319   1.402       .  A
C1318      H1331   1.083       .  S
C1319      C1320   1.399       .  A
C1319      C1322   1.447       .  S
C1320      C1321   1.400       .  A
C1320      H1332   1.083       .  S
C1321      H1333   1.083       .  S
C1322      C1323   1.210       .  T
C1323      C1324   1.447       .  S
C1324      C1325   1.401       .  A
C1324      C1329   1.401       .  A
C1325      C1326   1.401       .  A
C1325      H1334   1.084       .  S
C1326      C1327   1.405       .  A
C1326      H1335   1.083       .  S
C1327      C1328   1.406       .  A
C1328      C1329   1.402       .  A
C1328      H1336   1.083       .  S
C1329      H1337   1.083       .  S
C1338      C1339   1.411       .  A
C1338      C1343   1.408       .  A
C1339      C1340   1.404       .  A
C1339      H1352   1.083       .  S
C1340      C1341   1.401       .  A
C1340      H1353   1.083       .  S
C1341      C1342   1.402       .  A
C1341      C1344   1.451       .  S
C1342      C1343   1.402       .  A
C1342      H1354   1.084       .  S
C1343      H1355   1.083       .  S
C1344      C1345   1.213       .  T
C1345      C1346   1.450       .  S
C1346      C1347   1.400       .  A
C1346      C1351   1.405       .  A
C1347      C1348   1.398       .  A
C1347      H1356   1.084       .  S
C1348      C1349   1.405       .  A
C1348      H1357   1.083       .  S
C1349      C1350   1.406       .  A
C1350      C1351   1.407       .  A
C1350      H1358   1.083       .  S
C1351      H1359   1.083       .  S
C1360      C1361   1.407       .  A
C1360      C1365   1.406       .  A
C1361      C1362   1.399       .  A
C1361      H1374   1.083       .  S
C1362      C1363   1.400       .  A
C1362      H1375   1.084       .  S
C1363      C1364   1.406       .  A
C1363      C1366   1.453       .  S
C1364      C1365   1.408       .  A
C1364      H1376   1.083       .  S
C1365      H1377   1.083       .  S
C1366      C1367   1.214       .  T
C1367      C1368   1.454       .  S
C1368      C1369   1.403       .  A
C1368      C1373   1.402       .  A
C1369      C1370   1.404       .  A
C1369      H1378   1.083       .  S
C1370      C1371   1.409       .  A
C1370      H1379   1.083       .  S
C1371      C1372   1.411       .  A
C1372      C1373   1.405       .  A
C1372      H1380   1.083       .  S
C1373      H1381   1.083       .  S
C1382      C1383   1.408       .  A
C1382      C1387   1.409       .  A
C1383      C1384   1.403       .  A
C1383      H1396   1.083       .  S
C1384      C1385   1.402       .  A
C1384      H1397   1.083       .  S
C1385      C1386   1.399       .  A
C1385      C1388   1.445       .  S
C1386      C1387   1.398       .  A
C1386      H1398   1.084       .  S
C1387      H1399   1.083       .  S
C1388      C1389   1.209       .  T
C1389      C1390   1.445       .  S
C1390      C1391   1.399       .  A
C1390      C1395   1.404       .  A
C1391      C1392   1.396       .  A
C1391      H1400   1.084       .  S
C1392      C1393   1.405       .  A
C1392      H1401   1.083       .  S
C1393      C1394   1.405       .  A
C1394      C1395   1.404       .  A
C1394      H1402   1.083       .  S
C1395      H1403   1.083       .  S
C1404      C1405   1.408       .  A
C1404      C1409   1.408       .  A
C1405      C1406   1.399       .  A
C1405      H1418   1.083       .  S
C1406      C1407   1.400       .  A
C1406      H1419   1.084       .  S
C1407      C1408   1.400       .  A
C1407      C1410   1.441       .  S
C1408      C1409   1.399       .  A
C1408      H1420   1.083       .  S
C1409      H1421   1.083       .  S
C1410      C1411   1.207       .  T
C1411      C1412   1.441       .  S
C1412      C1413   1.400       .  A
C1412      C1417   1.399       .  A
C1413      C1414   1.399       .  A
C1413      H1422   1.084       .  S
C1414      C1415   1.409       .  A
C1414      H1423   1.083       .  S
C1415      C1416   1.408       .  A
C1416      C1417   1.399       .  A
C1416      H1424   1.083       .  S
C1417      H1425   1.084       .  S
C1426      C1427   1.408       .  A
C1426      C1431   1.407       .  A
C1427      C1428   1.396       .  A
C1427      H1440   1.083       .  S
C1428      C1429   1.398       .  A
C1428      H1441   1.084       .  S
C1429      C1430   1.401       .  A
C1429      C1432   1.440       .  S
C1430      C1431   1.402       .  A
C1430      H1442   1.083       .  S
C1431      H1443   1.083       .  S
C1432      C1433   1.206       .  T
C1433      C1434   1.440       .  S
C1434      C1435   1.399       .  A
C1434      C1439   1.399       .  A
C1435      C1436   1.398       .  A
C1435      H1444   1.084       .  S
C1436      C1437   1.408       .  A
C1436      H1445   1.083       .  S
C1437      C1438   1.409       .  A
C1438      C1439   1.399       .  A
C1438      H1446   1.083       .  S
C1439      H1447   1.084       .  S
C1448      C1449   1.408   1_545  A
C1448      C1453   1.411       .  A
C1449      C1450   1.410       .  A
C1449      H1462   1.080       .  S
C1450      C1451   1.406   1_565  A
C1450      H1463   1.083       .  S
C1451      C1452   1.399   1_556  A
C1451      C1454   1.457   1_546  S
C1452      C1453   1.400   1_554  A
C1452      H1464   1.083       .  S
C1453      H1465   1.082       .  S
C1454      C1455   1.217       .  T
C1455      C1456   1.457       .  S
C1456      C1457   1.405   1_565  A
C1456      C1461   1.399   1_554  A
C1457      C1458   1.409       .  A
C1457      H1466   1.083       .  S
C1458      C1459   1.410   1_545  A
C1458      H1467   1.080       .  S
C1459      C1460   1.412       .  A
C1460      C1461   1.401   1_554  A
C1460      H1468   1.082   1_554  S
C1461      H1469   1.083       .  S
C1470      C1471   1.407       .  A
C1470      C1475   1.407       .  A
C1471      C1472   1.405       .  A
C1471      H1484   1.083       .  S
C1472      C1473   1.403       .  A
C1472      H1485   1.083       .  S
C1473      C1474   1.401       .  A
C1473      C1476   1.452       .  S
C1474      C1475   1.401       .  A
C1474      H1486   1.084       .  S
C1475      H1487   1.083   1_565  S
C1476      C1477   1.214       .  T
C1477      C1478   1.452       .  S
C1478      C1479   1.400       .  A
C1478      C1483   1.403       .  A
C1479      C1480   1.401       .  A
C1479      H1488   1.083       .  S
C1480      C1481   1.410       .  A
C1480      H1489   1.083       .  S
C1481      C1482   1.410       .  A
C1482      C1483   1.406       .  A
C1482      H1490   1.083       .  S
C1483      H1491   1.083       .  S
C1492      C1493   1.411   1_654  A
C1492      C1497   1.412       .  A
C1493      C1494   1.408       .  A
C1493      H1506   1.079       .  S
C1494      C1495   1.404   1_456  A
C1494      H1507   1.083       .  S
C1495      C1496   1.400       .  A
C1495      C1498   1.457   1_655  S
C1496      C1497   1.402       .  A
C1496      H1508   1.084       .  S
C1497      H1509   1.082       .  S
C1498      C1499   1.216       .  T
C1499      C1500   1.457       .  S
C1500      C1501   1.404   1_455  A
C1500      C1505   1.401   1_554  A
C1501      C1502   1.407       .  A
C1501      H1510   1.083       .  S
C1502      C1503   1.408   1_655  A
C1502      H1511   1.080       .  S
C1503      C1504   1.410   1_554  A
C1504      C1505   1.404       .  A
C1504      H1512   1.082       .  S
C1505      H1513   1.083       .  S
C1514      C1515   1.405       .  A
C1514      C1519   1.406       .  A
C1515      C1516   1.401       .  A
C1515      H1528   1.083   1_455  S
C1516      C1517   1.401       .  A
C1516      H1529   1.083       .  S
C1517      C1518   1.402       .  A
C1517      C1520   1.449       .  S
C1518      C1519   1.403       .  A
C1518      H1530   1.083       .  S
C1519      H1531   1.083       .  S
C1520      C1521   1.212       .  T
C1521      C1522   1.450       .  S
C1522      C1523   1.400       .  A
C1522      C1527   1.402       .  A
C1523      C1524   1.402       .  A
C1523      H1532   1.083       .  S
C1524      C1525   1.411       .  A
C1524      H1533   1.083       .  S
C1525      C1526   1.408       .  A
C1526      C1527   1.403       .  A
C1526      H1534   1.083       .  S
C1527      H1535   1.083       .  S
C1536      C1537   1.411       .  A
C1536      C1541   1.414       .  A
C1537      C1538   1.408       .  A
C1537      H1550   1.079       .  S
C1538      C1539   1.404       .  A
C1538      H1551   1.083       .  S
C1539      C1540   1.397       .  A
C1539      C1542   1.454       .  S
C1540      C1541   1.400       .  A
C1540      H1552   1.084       .  S
C1541      H1553   1.080       .  S
C1542      C1543   1.215       .  T
C1543      C1544   1.454       .  S
C1544      C1545   1.405       .  A
C1544      C1549   1.400       .  A
C1545      C1546   1.407       .  A
C1545      H1554   1.083       .  S
C1546      C1547   1.407       .  A
C1546      H1555   1.081       .  S
C1547      C1548   1.409       .  A
C1548      C1549   1.400       .  A
C1548      H1556   1.082       .  S
C1549      H1557   1.083       .  S
C1558      C1559   1.410       .  A
C1558      C1563   1.408       .  A
C1559      C1560   1.404       .  A
C1559      H1572   1.083       .  S
C1560      C1561   1.402       .  A
C1560      H1573   1.083       .  S
C1561      C1562   1.402       .  A
C1561      C1564   1.452       .  S
C1562      C1563   1.402       .  A
C1562      H1574   1.083       .  S
C1563      H1575   1.083   1_565  S
C1564      C1565   1.213       .  T
C1565      C1566   1.452       .  S
C1566      C1567   1.401       .  A
C1566      C1571   1.403       .  A
C1567      C1568   1.402       .  A
C1567      H1576   1.083       .  S
C1568      C1569   1.406       .  A
C1568      H1577   1.083       .  S
C1569      C1570   1.407       .  A
C1570      C1571   1.405       .  A
C1570      H1578   1.083       .  S
C1571      H1579   1.083       .  S
C1580      C1581   1.408       .  A
C1580      C1585   1.406       .  A
C1581      C1582   1.398       .  A
C1581      H1594   1.083       .  S
C1582      C1583   1.399       .  A
C1582      H1595   1.083       .  S
C1583      C1584   1.406       .  A
C1583      C1586   1.453       .  S
C1584      C1585   1.409       .  A
C1584      H1596   1.083       .  S
C1585      H1597   1.081       .  S
C1586      C1587   1.214       .  T
C1587      C1588   1.453       .  S
C1588      C1589   1.399       .  A
C1588      C1593   1.402       .  A
C1589      C1590   1.402       .  A
C1589      H1598   1.083       .  S
C1590      C1591   1.413       .  A
C1590      H1599   1.081       .  S
C1591      C1592   1.412       .  A
C1592      C1593   1.406       .  A
C1592      H1600   1.077       .  S
C1593      H1601   1.084       .  S
C1602      C1603   1.406       .  A
C1602      C1607   1.405       .  A
C1603      C1604   1.402       .  A
C1603      H1616   1.083       .  S
C1604      C1605   1.402       .  A
C1604      H1617   1.083       .  S
C1605      C1606   1.403       .  A
C1605      C1608   1.451       .  S
C1606      C1607   1.403       .  A
C1606      H1618   1.083       .  S
C1607      H1619   1.083       .  S
C1608      C1609   1.213       .  T
C1609      C1610   1.451       .  S
C1610      C1611   1.401       .  A
C1610      C1615   1.402       .  A
C1611      C1612   1.403       .  A
C1611      H1620   1.083       .  S
C1612      C1613   1.410       .  A
C1612      H1621   1.083       .  S
C1613      C1614   1.409       .  A
C1614      C1615   1.403       .  A
C1614      H1622   1.083       .  S
C1615      H1623   1.083       .  S
C1624      C1625   1.409       .  A
C1624      C1629   1.410       .  A
C1625      C1626   1.403       .  A
C1625      H1638   1.083       .  S
C1626      C1627   1.402       .  A
C1626      H1639   1.083       .  S
C1627      C1628   1.402       .  A
C1627      C1630   1.453       .  S
C1628      C1629   1.405       .  A
C1628      H1640   1.083       .  S
C1629      H1641   1.083       .  S
C1630      C1631   1.214       .  T
C1631      C1632   1.453       .  S
C1632      C1633   1.405       .  A
C1632      C1637   1.400       .  A
C1633      C1634   1.407       .  A
C1633      H1642   1.083       .  S
C1634      C1635   1.406       .  A
C1634      H1643   1.083       .  S
C1635      C1636   1.407       .  A
C1636      C1637   1.399       .  A
C1636      H1644   1.083       .  S
C1637      H1645   1.084       .  S
C1646      C1647   1.411       .  A
C1646      C1651   1.408       .  A
C1647      C1648   1.403       .  A
C1647      H1660   1.083       .  S
C1648      C1649   1.401       .  A
C1648      H1661   1.083       .  S
C1649      C1650   1.403       .  A
C1649      C1652   1.453       .  S
C1650      C1651   1.404       .  A
C1650      H1662   1.083       .  S
C1651      H1663   1.083       .  S
C1652      C1653   1.214       .  T
C1653      C1654   1.452       .  S
C1654      C1655   1.405       .  A
C1654      C1659   1.400       .  A
C1655      C1656   1.407       .  A
C1655      H1664   1.083       .  S
C1656      C1657   1.406       .  A
C1656      H1665   1.083       .  S
C1657      C1658   1.407       .  A
C1658      C1659   1.399       .  A
C1658      H1666   1.083       .  S
C1659      H1667   1.084       .  S
C1668      C1669   1.410       .  A
C1668      C1673   1.409       .  A
C1669      C1670   1.400       .  A
C1669      H1682   1.083       .  S
C1670      C1671   1.399       .  A
C1670      H1683   1.084       .  S
C1671      C1672   1.404       .  A
C1671      C1674   1.451       .  S
C1672      C1673   1.406       .  A
C1672      H1684   1.083       .  S
C1673      H1685   1.083       .  S
C1674      C1675   1.213       .  T
C1675      C1676   1.450   1_545  S
C1676      C1677   1.405       .  A
C1676      C1681   1.400   1_565  A
C1677      C1678   1.406       .  A
C1677      H1686   1.083       .  S
C1678      C1679   1.406       .  A
C1678      H1687   1.083       .  S
C1679      C1680   1.407       .  A
C1680      C1681   1.398   1_565  A
C1680      H1688   1.083       .  S
C1681      H1689   1.084       .  S
C1690      C1691   1.405       .  A
C1690      C1695   1.405       .  A
C1691      C1692   1.404       .  A
C1691      H1704   1.083       .  S
C1692      C1693   1.403       .  A
C1692      H1705   1.083       .  S
C1693      C1694   1.400       .  A
C1693      C1696   1.446   1_455  S
C1694      C1695   1.397       .  A
C1694      H1706   1.084       .  S
C1695      H1707   1.083       .  S
C1696      C1697   1.210       .  T
C1697      C1698   1.447       .  S
C1698      C1699   1.402       .  A
C1698      C1703   1.400       .  A
C1699      C1700   1.401       .  A
C1699      H1708   1.084       .  S
C1700      C1701   1.408       .  A
C1700      H1709   1.083       .  S
C1701      C1702   1.410       .  A
C1702      C1703   1.402       .  A
C1702      H1710   1.083       .  S
C1703      H1711   1.083       .  S
C1712      C1713   1.409       .  A
C1712      C1717   1.408       .  A
C1713      C1714   1.401       .  A
C1713      H1726   1.083       .  S
C1714      C1715   1.400       .  A
C1714      H1727   1.083       .  S
C1715      C1716   1.400       .  A
C1715      C1718   1.445       .  S
C1716      C1717   1.400       .  A
C1716      H1728   1.083       .  S
C1717      H1729   1.083       .  S
C1718      C1719   1.209       .  T
C1719      C1720   1.445       .  S
C1720      C1721   1.400       .  A
C1720      C1725   1.400       .  A
C1721      C1722   1.400       .  A
C1721      H1730   1.083       .  S
C1722      C1723   1.408       .  A
C1722      H1731   1.083       .  S
C1723      C1724   1.410       .  A
C1724      C1725   1.401       .  A
C1724      H1732   1.083       .  S
C1725      H1733   1.083       .  S
C1734      C1735   1.409       .  A
C1734      C1739   1.409       .  A
C1735      C1736   1.401       .  A
C1735      H1748   1.083   1_655  S
C1736      C1737   1.400       .  A
C1736      H1749   1.083       .  S
C1737      C1738   1.400       .  A
C1737      C1740   1.445       .  S
C1738      C1739   1.401       .  A
C1738      H1750   1.084       .  S
C1739      H1751   1.083   1_545  S
C1740      C1741   1.209       .  T
C1741      C1742   1.444       .  S
C1742      C1743   1.399       .  A
C1742      C1747   1.402       .  A
C1743      C1744   1.398       .  A
C1743      H1752   1.084       .  S
C1744      C1745   1.408       .  A
C1744      H1753   1.083       .  S
C1745      C1746   1.407       .  A
C1746      C1747   1.403       .  A
C1746      H1754   1.083       .  S
C1747      H1755   1.083       .  S
