geometry optimzed in LAMMPS
_audit_creation_date              2020-11-30 
_audit_creation_method            'lammps2cif' 
_symmetry_space_group_name_H-M    'P1' 
_symmetry_Int_Tables_number       1 
_symmetry_cell_setting            triclinic 
loop_ 
_symmetry_equiv_pos_as_xyz 
  x,y,z 
_cell_length_a                    33.69371424805067 
_cell_length_b                    33.71667979025135 
_cell_length_c                    33.69075354565807 
_cell_angle_alpha                 90.13967981945491 
_cell_angle_beta                  89.85826980376046 
_cell_angle_gamma                 89.7851373525557 
loop_ 
_atom_site_label 
_atom_site_type_symbol 
_atom_site_fract_x 
_atom_site_fract_y 
_atom_site_fract_z 
_atom_site_charge 
C1          C  0.50076449  0.79409074  0.70688874     0.03830
C2          C  0.49965487  0.83474228  0.71798931    -0.12320
C3          C  0.49894393  0.86407490  0.68868388     0.01330
C4          C  0.49730532  0.85205555  0.64892735    -0.10850
C5          C  0.49983380  0.81238127  0.63684401     0.03820
C6          C  0.50158335  0.78311327  0.66616555    -0.10270
H7          H  0.49954055  0.84324462  0.74902803     0.09410
H8          H  0.49402693  0.87460370  0.62638330     0.06940
H9          H  0.50349506  0.75215076  0.65762020     0.06790
C10         C  0.50006927  0.67218059  0.82860493     0.03830
C11         C  0.50218908  0.63158885  0.81750000    -0.12320
C12         C  0.49975707  0.60219359  0.84660991     0.01330
C13         C  0.49441712  0.61398120  0.88606899    -0.10850
C14         C  0.49434321  0.65366339  0.89835687     0.03820
C15         C  0.49694700  0.68310088  0.86923205    -0.10270
H16         H  0.50576018  0.62322929  0.78660851     0.09410
H17         H  0.49102046  0.59110977  0.90822747     0.06940
H18         H  0.49610112  0.71409297  0.87782072     0.06790
C19         C  0.80849473  0.67047963  0.51621670     0.03830
C20         C  0.79790140  0.62978640  0.51720224    -0.12320
C21         C  0.82758534  0.60064392  0.51764189     0.01330
C22         C  0.86721808  0.61295933  0.51851728    -0.10850
C23         C  0.87874580  0.65270598  0.51592617     0.03820
C24         C  0.84902144  0.68179937  0.51508371    -0.10270
H25         H  0.76696073  0.62113777  0.51740978     0.09410
H26         H  0.89014815  0.59060593  0.52126308     0.06940
H27         H  0.85707528  0.71283463  0.51343554     0.06790
C28         C  0.68605596  0.79220833  0.51556701     0.03830
C29         C  0.64531478  0.78160966  0.51569129    -0.12320
C30         C  0.61612362  0.81125221  0.51497586     0.01330
C31         C  0.62838813  0.85086928  0.51556805    -0.10850
C32         C  0.66824314  0.86238133  0.51457131     0.03820
C33         C  0.69737418  0.83270013  0.51469454    -0.10270
H34         H  0.63667133  0.75068402  0.51610184     0.09410
H35         H  0.60590588  0.87378163  0.51719587     0.06940
H36         H  0.72846165  0.84077396  0.51398345     0.06790
C37         C  0.81032128  0.48357296  0.70736059     0.03830
C38         C  0.85082802  0.48395026  0.71856696    -0.12320
C39         C  0.88033342  0.48326568  0.68926231     0.01330
C40         C  0.86851828  0.48094498  0.64950088    -0.10850
C41         C  0.82878388  0.48230917  0.63741479     0.03820
C42         C  0.79931943  0.48326536  0.66678160    -0.10270
H43         H  0.85900830  0.48504487  0.74964118     0.09410
H44         H  0.89128467  0.47812555  0.62697593     0.06940
H45         H  0.76828688  0.48380831  0.65843949     0.06790
C46         C  0.68865973  0.48344485  0.82878574     0.03830
C47         C  0.64815344  0.48207031  0.81760260    -0.12320
C48         C  0.61870000  0.48100202  0.84694872     0.01330
C49         C  0.63059826  0.48216758  0.88675552    -0.10850
C50         C  0.67026803  0.48454964  0.89873646     0.03820
C51         C  0.69970155  0.48458458  0.86934748    -0.10270
H52         H  0.63995749  0.48135335  0.78652456     0.09410
H53         H  0.60796247  0.48135544  0.90951045     0.06940
H54         H  0.73072043  0.48594089  0.87764219     0.06790
C55         C  0.80925025  0.79515042  0.01671170     0.03830
C56         C  0.79813890  0.83579838  0.01453779    -0.12320
C57         C  0.82738000  0.86520425  0.01407578     0.01330
C58         C  0.86719306  0.85324226  0.01521293    -0.10850
C59         C  0.87930722  0.81348360  0.01617163     0.03820
C60         C  0.85000399  0.78425758  0.01795058    -0.10270
H61         H  0.76711901  0.84425295  0.01309867     0.09410
H62         H  0.88975917  0.87592285  0.01595326     0.06940
H63         H  0.85863846  0.75332785  0.01983737     0.06790
C64         C  0.68799565  0.67245042  0.01761567     0.03830
C65         C  0.69912612  0.63185149  0.02021276    -0.12320
C66         C  0.67008011  0.60237445  0.01816506     0.01330
C67         C  0.63053302  0.61410718  0.01328432    -0.10850
C68         C  0.61820355  0.65377003  0.01255812     0.03820
C69         C  0.64731684  0.68324426  0.01438272    -0.10270
H70         H  0.72999946  0.62352445  0.02378976     0.09410
H71         H  0.60829459  0.59124214  0.01063584     0.06940
H72         H  0.63864475  0.71418570  0.01286277     0.06790
C73         C  0.80704457  0.98393428  0.83071924     0.03830
C74         C  0.84762643  0.98127947  0.81954712    -0.12320
C75         C  0.87718323  0.98343931  0.84853542     0.01330
C76         C  0.86557960  0.98861149  0.88809462    -0.10850
C77         C  0.82589739  0.98938722  0.90048435     0.03820
C78         C  0.79631927  0.98736069  0.87140884    -0.10270
H79         H  0.85588705  0.97747837  0.78865939     0.09410
H80         H  0.88855239  0.99133135  0.91025897     0.06940
H81         H  0.76536252  0.98877484  0.88011584     0.06790
C82         C  0.68536626  0.98163855  0.70841307     0.03830
C83         C  0.69667189  0.97821042  0.66791264    -0.12320
C84         C  0.66761471  0.97739561  0.63831564     0.01330
C85         C  0.62771866  0.97967166  0.64993112    -0.10850
C86         C  0.61548121  0.98371265  0.68948078     0.03820
C87         C  0.64463558  0.98459850  0.71900257    -0.10270
H88         H  0.72772618  0.97604107  0.65973094     0.09410
H89         H  0.60516992  0.97858351  0.62719423     0.06940
H90         H  0.63595215  0.98785128  0.74984116     0.06790
C91         C  0.99804496  0.79331211  0.83056302     0.03830
C92         C  0.99656528  0.83394390  0.81950124    -0.12320
C93         C  0.99802949  0.86350586  0.84868603     0.01330
C94         C  0.99878095  0.85176167  0.88851418    -0.10850
C95         C  0.00077331  0.81213541  0.90058981     0.03820
C96         C  0.00059121  0.78263113  0.87126567    -0.10270
H97         H  0.99472543  0.84227595  0.78852846     0.09410
H98         H  0.99751284  0.87449193  0.91117661     0.06940
H99         H  0.00250220  0.75172833  0.87982135     0.06790
C100        C  0.99644382  0.67054235  0.70859868     0.03830
C101        C  0.99973114  0.62993674  0.71931314    -0.12320
C102        C  0.99964874  0.60056636  0.68984030     0.01330
C103        C  0.99619491  0.61248435  0.65020811    -0.10850
C104        C  0.99330422  0.65221683  0.63852287     0.03820
C105        C  0.99322201  0.68146484  0.66805353    -0.10270
H106        H  0.00270357  0.62152067  0.75018292     0.09410
H107        H  0.99597936  0.58983127  0.62743989     0.06940
H108        H  0.99062918  0.71239238  0.65976952     0.06790
C109        C  0.49951103  0.17184749  0.70729555     0.03830
C110        C  0.49580119  0.13136635  0.71824338    -0.12320
C111        C  0.49421985  0.10199302  0.68885102     0.01330
C112        C  0.49582251  0.11386174  0.64908540    -0.10850
C113        C  0.50056307  0.15330373  0.63726088     0.03820
C114        C  0.50238740  0.18257617  0.66666843    -0.10270
H115        H  0.49382417  0.12305395  0.74922447     0.09410
H116        H  0.49374148  0.09139325  0.62624578     0.06940
H117        H  0.50607282  0.21334342  0.65825313     0.06790
C118        C  0.50057357  0.29449828  0.82931831     0.03830
C119        C  0.50053397  0.33522852  0.81856604    -0.12320
C120        C  0.49876528  0.36453198  0.84801195     0.01330
C121        C  0.49988810  0.35258022  0.88772728    -0.10850
C122        C  0.50133699  0.31282214  0.89948580     0.03820
C123        C  0.50031441  0.28354069  0.87001232    -0.10270
H124        H  0.50119927  0.34385495  0.78761977     0.09410
H125        H  0.49955870  0.37523032  0.91049585     0.06940
H126        H  0.49979816  0.25257530  0.87848720     0.06790
O127        O  0.43845658  0.98598127  0.72836224    -0.71080
O128        O  0.55381057  0.98026948  0.72892755    -0.71300
O129        O  0.49863736  0.04077204  0.72869334    -0.71160
O130        O  0.49352991  0.92543129  0.72854531    -0.71160
O131        O  0.50695135  0.92896346  0.66580034    -0.71120
O132        O  0.48611158  0.03700852  0.66584906    -0.71140
O133        O  0.55073363  0.99320071  0.66611412    -0.71090
O134        O  0.44251970  0.97279906  0.66557385    -0.71270
V135        V  0.49611921  0.98310292  0.72840050     1.35240
V136        V  0.49658226  0.98300007  0.66719612     1.35170
C137        C  0.42105265  0.97969882  0.69542118     0.78160
C138        C  0.57175479  0.98650821  0.69619957     0.78220
C139        C  0.49223358  0.05835105  0.69586107     0.78090
C140        C  0.50021699  0.90774918  0.69570619     0.78050
C141        C  0.99642564  0.17144913  0.82897719     0.03830
C142        C  0.99888794  0.18263907  0.86954521    -0.12320
C143        C  0.00093142  0.15338392  0.89893494     0.01330
C144        C  0.00027806  0.11358093  0.88693621    -0.10850
C145        C  0.99620401  0.10155636  0.84733326     0.03820
C146        C  0.99473654  0.13083559  0.81802641    -0.10270
H147        H  0.99973347  0.21369759  0.87785846     0.09410
H148        H  0.00246834  0.09089483  0.90943533     0.06940
H149        H  0.99210396  0.12238048  0.78708630     0.06790
C150        C  0.99677861  0.29260141  0.70665320     0.03830
C151        C  0.99658264  0.33316240  0.71804309    -0.12320
C152        C  0.99819592  0.36268221  0.68898113     0.01330
C153        C  0.00193822  0.35098056  0.64926645    -0.10850
C154        C  0.00145024  0.31132703  0.63681602     0.03820
C155        C  0.99831064  0.28185615  0.66587220    -0.10270
H156        H  0.99498650  0.34143504  0.74910989     0.09410
H157        H  0.00485694  0.37387398  0.62707104     0.06940
H158        H  0.99766647  0.25090398  0.65713088     0.06790
C159        C  0.18514700  0.98224423  0.82764777     0.03830
C160        C  0.19644378  0.98000950  0.86812179    -0.12320
C161        C  0.16728384  0.97794200  0.89769649     0.01330
C162        C  0.12741049  0.97814453  0.88603065    -0.10850
C163        C  0.11523055  0.98214341  0.84656132     0.03820
C164        C  0.14444661  0.98368189  0.81698904    -0.10270
H165        H  0.22753449  0.97950048  0.87624335     0.09410
H166        H  0.10476247  0.97575511  0.90867830     0.06940
H167        H  0.13588062  0.98629270  0.78612009     0.06790
C168        C  0.30735254  0.98373548  0.70595359     0.03830
C169        C  0.34782976  0.98160024  0.71724661    -0.12320
C170        C  0.37750806  0.98256395  0.68815769     0.01330
C171        C  0.36603882  0.98662144  0.64846549    -0.10850
C172        C  0.32637095  0.98799540  0.63617342     0.03820
C173        C  0.29670577  0.98637558  0.66530994    -0.10270
H174        H  0.35586845  0.97892355  0.74824624     0.09410
H175        H  0.38907182  0.98832496  0.62615099     0.06940
H176        H  0.26574190  0.98755955  0.65673585     0.06790
O177        O  0.05355447  0.97877361  0.80747135    -0.71080
O178        O  0.93832854  0.98573276  0.80833582    -0.71300
O179        O  0.99920228  0.03990380  0.80764021    -0.71160
O180        O  0.99273150  0.92455526  0.80845214    -0.71160
O181        O  0.00545678  0.92867779  0.87123148    -0.71120
O182        O  0.98695107  0.03703366  0.87064906    -0.71140
O183        O  0.94198211  0.97375743  0.87131612    -0.71090
O184        O  0.05057338  0.99187121  0.87034033    -0.71270
V185        V  0.99593117  0.98224282  0.80824335     1.35240
V186        V  0.99623306  0.98282247  0.86948885     1.35170
C187        C  0.07152488  0.98490122  0.84012277     0.78160
C188        C  0.92073298  0.98024418  0.84136042     0.78220
C189        C  0.99347273  0.05791728  0.84048835     0.78090
C190        C  0.99899969  0.90716849  0.84142695     0.78050
C191        C  0.18836609  0.48305946  0.70775186     0.03830
C192        C  0.19914695  0.48686296  0.66711930    -0.12320
C193        C  0.16975127  0.48734990  0.63781695     0.01330
C194        C  0.13006732  0.48477747  0.64983942    -0.10850
C195        C  0.11830338  0.48058795  0.68945782     0.03820
C196        C  0.14775933  0.47953229  0.71864847    -0.10270
H197        H  0.23003611  0.48964207  0.65858420     0.09410
H198        H  0.10728737  0.48577218  0.62733107     0.06940
H199        H  0.13936412  0.47587672  0.74948853     0.06790
C200        C  0.31053247  0.48242398  0.83011934     0.03830
C201        C  0.35115730  0.48566623  0.81924563    -0.12320
C202        C  0.38058701  0.48514940  0.84848400     0.01330
C203        C  0.36873379  0.48203891  0.88824509    -0.10850
C204        C  0.32898582  0.47934017  0.90017577     0.03820
C205        C  0.29969835  0.47914281  0.87076989    -0.10270
H206        H  0.35960896  0.48876058  0.78835742     0.09410
H207        H  0.39141647  0.48180663  0.91088634     0.06940
H208        H  0.26880590  0.47628764  0.87926184     0.06790
O209        O  0.05687764  0.48430932  0.72934948    -0.71080
O210        O  0.94151857  0.47869627  0.72914869    -0.71300
O211        O  0.00221538  0.42387847  0.72908994    -0.71160
O212        O  0.99614518  0.53918444  0.72943912    -0.71160
O213        O  0.00958234  0.53571486  0.66667482    -0.71120
O214        O  0.98931149  0.42758232  0.66630624    -0.71140
O215        O  0.94532998  0.49187904  0.66641543    -0.71090
O216        O  0.05354647  0.47119294  0.66653756    -0.71270
V217        V  0.99919875  0.48152223  0.72903296     1.35240
V218        V  0.99944651  0.48159792  0.66783630     1.35170
C219        C  0.07467706  0.47788065  0.69652213     0.78160
C220        C  0.92397193  0.48513546  0.69630609     0.78220
C221        C  0.99597796  0.40629125  0.69618349     0.78090
C222        C  0.00258654  0.55691804  0.69669126     0.78050
O223        O  0.44563898  0.49409481  0.87089389    -0.71080
O224        O  0.55375329  0.47328895  0.87008188    -0.71300
O225        O  0.50996903  0.53772570  0.86986806    -0.71160
O226        O  0.48973505  0.42962382  0.87084390    -0.71160
O227        O  0.50256829  0.42552390  0.80799361    -0.71120
O228        O  0.49648388  0.54068711  0.80715385    -0.71140
O229        O  0.55725896  0.48578095  0.80723158    -0.71090
O230        O  0.44177273  0.48047176  0.80821164    -0.71270
V231        V  0.49976754  0.48368812  0.86906476     1.35240
V232        V  0.49951075  0.48311757  0.80787039     1.35170
C233        C  0.42423801  0.48730715  0.84113828     0.78160
C234        C  0.57499033  0.47942991  0.84000737     0.78220
C235        C  0.50285590  0.55863223  0.83980935     0.78090
C236        C  0.49645947  0.40813845  0.84096459     0.78050
C237        C  0.49946901  0.67075554  0.20630157     0.03830
C238        C  0.49534407  0.63028540  0.21711364    -0.12320
C239        C  0.49510220  0.60080757  0.18780164     0.01330
C240        C  0.49827282  0.61247976  0.14803781    -0.10850
C241        C  0.50222808  0.65207192  0.13623811     0.03820
C242        C  0.50316900  0.68138283  0.16569176    -0.10270
H243        H  0.49215271  0.62198867  0.24799950     0.09410
H244        H  0.49770009  0.58979822  0.12529460     0.06940
H245        H  0.50683448  0.71214316  0.15726084     0.06790
C246        C  0.49996568  0.79326403  0.32871386     0.03830
C247        C  0.50387087  0.83380199  0.31797780    -0.12320
C248        C  0.50343959  0.86324082  0.34732778     0.01330
C249        C  0.49987828  0.85147454  0.38696849    -0.10850
C250        C  0.49615482  0.81188061  0.39874394     0.03820
C251        C  0.49590620  0.78254671  0.36928761    -0.10270
H252        H  0.50730057  0.84217380  0.28713751     0.09410
H253        H  0.49989086  0.87417705  0.40968002     0.06940
H254        H  0.49238773  0.75175474  0.37765897     0.06790
O255        O  0.44555041  0.62943974  0.02861357    -0.71080
O256        O  0.55324930  0.63044947  0.00533651    -0.71300
O257        O  0.51098584  0.62951310  0.07098612    -0.71160
O258        O  0.48785465  0.63029334  0.96335499    -0.71160
O259        O  0.50016360  0.69310960  0.95986111    -0.71120
O260        O  0.49731909  0.69216182  0.07533017    -0.71140
O261        O  0.55653943  0.69310659  0.01883658    -0.71090
O262        O  0.44108900  0.69222335  0.01612261    -0.71270
V263        V  0.49943220  0.63127779  0.01709559     1.35240
V264        V  0.49879782  0.69242113  0.01758884     1.35170
C265        C  0.42386485  0.65925471  0.02251055     0.78160
C266        C  0.57438978  0.66051001  0.01148231     0.78220
C267        C  0.50436501  0.65928635  0.09260955     0.78090
C268        C  0.49339573  0.66041312  0.94213209     0.78050
C269        C  0.18767330  0.79356506  0.02085098     0.03830
C270        C  0.19848482  0.83426026  0.01949973    -0.12320
C271        C  0.16906215  0.86366585  0.02040585     0.01330
C272        C  0.12935307  0.85167520  0.02019457    -0.10850
C273        C  0.11749824  0.81198885  0.02235970     0.03820
C274        C  0.14700648  0.78266843  0.02294051    -0.10270
H275        H  0.22942744  0.84276577  0.01807824     0.09410
H276        H  0.10662726  0.87429297  0.01808902     0.06940
H277        H  0.13862233  0.75174605  0.02495456     0.06790
C278        C  0.31010568  0.67086343  0.01929334     0.03830
C279        C  0.35086061  0.68155049  0.01922455    -0.12320
C280        C  0.38020587  0.65212846  0.02099075     0.01330
C281        C  0.36825944  0.61241696  0.02013122    -0.10850
C282        C  0.32848633  0.60069634  0.01824554     0.03820
C283        C  0.29915827  0.63019490  0.01929042    -0.10270
H284        H  0.35947769  0.71246468  0.01844567     0.09410
H285        H  0.39090312  0.58962437  0.02072780     0.06940
H286        H  0.26816992  0.62175280  0.01960644     0.06790
C287        C  0.99474876  0.79475258  0.20880603     0.03830
C288        C  0.99706245  0.83544679  0.21962226    -0.12320
C289        C  0.99909505  0.86449864  0.19005906     0.01330
C290        C  0.00112463  0.85206419  0.15047039    -0.10850
C291        C  0.99634952  0.81260784  0.13867472     0.03820
C292        C  0.99319468  0.78363556  0.16814101    -0.10270
H293        H  0.99726552  0.84420285  0.25058993     0.09410
H294        H  0.00598071  0.87416247  0.12775449     0.06940
H295        H  0.98989054  0.75277619  0.15975243     0.06790
C296        C  0.99652299  0.67290925  0.33088160     0.03830
C297        C  0.99508464  0.63229820  0.31977290    -0.12320
C298        C  0.99944034  0.60287665  0.34861167     0.01330
C299        C  0.00560272  0.61466805  0.38795466    -0.10850
C300        C  0.00381911  0.65426507  0.40051415     0.03820
C301        C  0.99983559  0.68373588  0.37152793    -0.10270
H302        H  0.99079848  0.62392175  0.28901169     0.09410
H303        H  0.01062451  0.59183171  0.40986815     0.06940
H304        H  0.99983111  0.71469173  0.38026102     0.06790
O305        O  0.05249087  0.83521059  0.03015756    -0.71080
O306        O  0.94454245  0.83605442  0.00956265    -0.71300
O307        O  0.98808250  0.83569392  0.07387561    -0.71160
O308        O  0.00894411  0.83538186  0.96564850    -0.71160
O309        O  0.99608832  0.77264933  0.96199911    -0.71120
O310        O  0.00048129  0.77275189  0.07736817    -0.71140
O311        O  0.94051206  0.77327516  0.02199435    -0.71090
O312        O  0.05608063  0.77237378  0.01742428    -0.71270
V313        V  0.99851488  0.83419924  0.01979788     1.35240
V314        V  0.99828669  0.77301796  0.01970462     1.35170
C315        C  0.07376534  0.80511964  0.02388826     0.78160
C316        C  0.92305744  0.80625855  0.01559876     0.78220
C317        C  0.99433522  0.80564578  0.09505417     0.78090
C318        C  0.00256636  0.80537383  0.94434118     0.78050
C319        C  0.18636845  0.67232640  0.51932965     0.03830
C320        C  0.19762184  0.63182316  0.51599367    -0.12320
C321        C  0.16854647  0.60228657  0.51607997     0.01330
C322        C  0.12875676  0.61391677  0.51959805    -0.10850
C323        C  0.11654626  0.65352947  0.52278324     0.03820
C324        C  0.14568805  0.68301291  0.52260350    -0.10270
H325        H  0.22863313  0.62360915  0.51322818     0.09410
H326        H  0.10629293  0.59112073  0.51983058     0.06940
H327        H  0.13703923  0.71389843  0.52530975     0.06790
C328        C  0.30780112  0.79470803  0.52092815     0.03830
C329        C  0.29690083  0.83546386  0.52249891    -0.12320
C330        C  0.32630633  0.86470166  0.52180727     0.01330
C331        C  0.36598589  0.85249783  0.51975988    -0.10850
C332        C  0.37792468  0.81272507  0.52037087     0.03820
C333        C  0.34850710  0.78355702  0.51983436    -0.10270
H334        H  0.26593487  0.84410830  0.52423549     0.09410
H335        H  0.38863389  0.87500061  0.51739812     0.06940
H336        H  0.35700604  0.75254243  0.51885629     0.06790
O337        O  0.05508207  0.69318937  0.51853555    -0.71080
O338        O  0.93963018  0.69278435  0.52141885    -0.71300
O339        O  0.99855632  0.69248814  0.57771589    -0.71160
O340        O  0.99635456  0.69342671  0.46218824    -0.71160
O341        O  0.00979081  0.63073967  0.46559904    -0.71120
O342        O  0.98584498  0.62977432  0.57317608    -0.71140
O343        O  0.94402442  0.63019724  0.50761119    -0.71090
O344        O  0.05161191  0.63039750  0.53116653    -0.71270
V345        V  0.99737282  0.69275523  0.51997256     1.35240
V346        V  0.99779539  0.63162270  0.51939044     1.35170
C347        C  0.07282502  0.66040702  0.52501541     0.78160
C348        C  0.92237438  0.65995976  0.51434121     0.78220
C349        C  0.99177130  0.65954651  0.59489667     0.78090
C350        C  0.00400325  0.66085961  0.44439080     0.78050
O351        O  0.43922445  0.77258033  0.51535823    -0.71080
O352        O  0.55464646  0.77196910  0.52014772    -0.71300
O353        O  0.49455388  0.77252011  0.57551494    -0.71160
O354        O  0.49948495  0.77211037  0.46005569    -0.71160
O355        O  0.48694897  0.83500663  0.46363222    -0.71120
O356        O  0.50706273  0.83532084  0.57180059    -0.71140
O357        O  0.55114358  0.83479603  0.50761795    -0.71090
O358        O  0.44297127  0.83543591  0.52780200    -0.71270
V359        V  0.49694631  0.77255764  0.51777570     1.35240
V360        V  0.49702677  0.83374781  0.51771525     1.35170
C361        C  0.42163635  0.80555284  0.52154673     0.78160
C362        C  0.57236498  0.80468120  0.51382918     0.78220
C363        C  0.50095524  0.80538089  0.59311603     0.78090
C364        C  0.49336659  0.80493978  0.44238126     0.78050
C365        C  0.49801837  0.17101442  0.32918632     0.03830
C366        C  0.49597555  0.13037051  0.31812431    -0.12320
C367        C  0.49624706  0.10095907  0.34737401     0.01330
C368        C  0.49808794  0.11284648  0.38713063    -0.10850
C369        C  0.49810213  0.15255639  0.39923705     0.03820
C370        C  0.49926102  0.18188101  0.36994732    -0.10270
H371        H  0.49415533  0.12192152  0.28712908     0.09410
H372        H  0.49983221  0.09015851  0.40967864     0.06940
H373        H  0.50070735  0.21281563  0.37860033     0.06790
C374        C  0.49875290  0.29315012  0.20722443     0.03830
C375        C  0.50152815  0.33374419  0.21821741    -0.12320
C376        C  0.50029466  0.36316373  0.18903569     0.01330
C377        C  0.49639035  0.35135502  0.14938771    -0.10850
C378        C  0.49446356  0.31166573  0.13732044     0.03820
C379        C  0.49548047  0.28228073  0.16659318    -0.10270
H380        H  0.50465003  0.34213136  0.24912014     0.09410
H381        H  0.49506764  0.37410926  0.12688974     0.06940
H382        H  0.49335143  0.25134627  0.15807776     0.06790
O383        O  0.44617508  0.97090342  0.36994171    -0.71080
O384        O  0.55379559  0.99339800  0.37061602    -0.71300
O385        O  0.48847943  0.03596111  0.37016817    -0.71160
O386        O  0.51155500  0.92827580  0.37028437    -0.71160
O387        O  0.49888225  0.92435266  0.30746478    -0.71120
O388        O  0.50216461  0.03971123  0.30750630    -0.71140
O389        O  0.55830241  0.98017085  0.30789117    -0.71090
O390        O  0.44272366  0.98391084  0.30719734    -0.71270
V391        V  0.50001207  0.98213290  0.36890044     1.35240
V392        V  0.50052215  0.98203155  0.30772530     1.35170
C393        C  0.42494406  0.97714202  0.33992570     0.78160
C394        C  0.57551107  0.98705323  0.34084463     0.78220
C395        C  0.49500119  0.05729031  0.34028602     0.78090
C396        C  0.50547845  0.90686145  0.34029937     0.78050
O397        O  0.44052413  0.27189242  0.01988942    -0.71080
O398        O  0.55599394  0.27294414  0.01623927    -0.71300
O399        O  0.49999682  0.27210113  0.07582061    -0.71160
O400        O  0.49642574  0.27266920  0.96039008    -0.71160
O401        O  0.50920420  0.33537853  0.96471600    -0.71120
O402        O  0.48581313  0.33463598  0.07237445    -0.71140
O403        O  0.55143733  0.33551796  0.03009341    -0.71090
O404        O  0.44386369  0.33458353  0.00685134    -0.71270
V405        V  0.49825987  0.27259196  0.01809346     1.35240
V406        V  0.49759158  0.33369941  0.01852684     1.35170
C407        C  0.42270780  0.30455199  0.01297116     0.78160
C408        C  0.57316926  0.30581971  0.02340707     0.78220
C409        C  0.49261048  0.30472494  0.09358928     0.78090
C410        C  0.50291823  0.30559592  0.94310280     0.78050
C411        C  0.18865804  0.29471668  0.51905774     0.03830
C412        C  0.19932463  0.33532682  0.52187902    -0.12320
C413        C  0.16978890  0.36464799  0.52224080     0.01330
C414        C  0.13011250  0.35266265  0.51969549    -0.10850
C415        C  0.11850409  0.31292853  0.51654310     0.03820
C416        C  0.14812482  0.28369669  0.51633400    -0.10270
H417        H  0.23023708  0.34378539  0.52403325     0.09410
H418        H  0.10726782  0.37526641  0.51999169     0.06940
H419        H  0.13995923  0.25274209  0.51378028     0.06790
C420        C  0.31101292  0.17247734  0.51764750     0.03830
C421        C  0.35169003  0.18302359  0.52012441    -0.12320
C422        C  0.38099585  0.15349595  0.51885386     0.01330
C423        C  0.36895882  0.11399372  0.51467652    -0.10850
C424        C  0.32909545  0.10242006  0.51302538     0.03820
C425        C  0.29988103  0.13202980  0.51443929    -0.10270
H426        H  0.36020682  0.21383433  0.52326342     0.09410
H427        H  0.39163898  0.09126959  0.51307956     0.06940
H428        H  0.26884734  0.12391513  0.51278576     0.06790
O429        O  0.05761539  0.27259057  0.52000541    -0.71080
O430        O  0.94220766  0.27132105  0.51469350    -0.71300
O431        O  0.00262299  0.27210941  0.45964027    -0.71160
O432        O  0.99719464  0.27176031  0.57512196    -0.71160
O433        O  0.00866205  0.33474546  0.57183416    -0.71120
O434        O  0.98934664  0.33484876  0.46356478    -0.71140
O435        O  0.94486808  0.33418243  0.52748065    -0.71090
O436        O  0.05327266  0.33546386  0.50791841    -0.71270
V437        V  0.99991030  0.27221586  0.51737124     1.35240
V438        V  0.99905339  0.33340961  0.51768912     1.35170
C439        C  0.07489491  0.30563624  0.51411802     0.78160
C440        C  0.92406221  0.30399524  0.52086213     0.78220
C441        C  0.99606019  0.30495135  0.44215181     0.78090
C442        C  0.00298309  0.30459819  0.59298094     0.78050
O443        O  0.28708289  0.98294159  0.57459677    -0.71080
O444        O  0.28847134  0.98514948  0.45903860    -0.71300
O445        O  0.28705891  0.92639581  0.51553604    -0.71160
O446        O  0.28850923  0.04184545  0.51812144    -0.71160
O447        O  0.35133729  0.03692015  0.50550158    -0.71120
O448        O  0.34963301  0.92954483  0.52940871    -0.71140
O449        O  0.35099856  0.97110993  0.46367378    -0.71090
O450        O  0.34995876  0.99526983  0.57117915    -0.71270
V451        V  0.28798549  0.98412192  0.51682228     1.35240
V452        V  0.34913714  0.98322769  0.51741593     1.35170
C453        C  0.31976194  0.98949873  0.59238837     0.78160
C454        C  0.32137919  0.97741343  0.44188590     0.78220
C455        C  0.31958623  0.90848655  0.52287978     0.78090
C456        C  0.32160176  0.05882516  0.51143618     0.78050
C457        C  0.18676441  0.17138317  0.01821532     0.03830
C458        C  0.14615344  0.18243375  0.02131102    -0.12320
C459        C  0.11665925  0.15338770  0.01965048     0.01330
C460        C  0.12837947  0.11378463  0.01502476    -0.10850
C461        C  0.16812445  0.10162004  0.01313866     0.03820
C462        C  0.19756294  0.13078417  0.01439777    -0.10270
H463        H  0.13779480  0.21329255  0.02502956     0.09410
H464        H  0.10550981  0.09146078  0.01319030     0.06940
H465        H  0.22850627  0.12218193  0.01215791     0.06790
C466        C  0.30905370  0.29300603  0.01883793     0.03830
C467        C  0.34970593  0.28209368  0.01541208    -0.12320
C468        C  0.37896193  0.31145109  0.01454987     0.01330
C469        C  0.36685882  0.35115369  0.01644141    -0.10850
C470        C  0.32726213  0.36299811  0.02062002     0.03820
C471        C  0.29808137  0.33363000  0.02191725    -0.10270
H472        H  0.35826642  0.25115892  0.01310961     0.09410
H473        H  0.38927758  0.37393935  0.01494796     0.06940
H474        H  0.26719885  0.34208789  0.02534317     0.06790
C475        C  0.18928209  0.98291520  0.20568297     0.03830
C476        C  0.14871306  0.98158075  0.21710649    -0.12320
C477        C  0.11904339  0.98458010  0.18829314     0.01330
C478        C  0.13059004  0.98960511  0.14869705    -0.10850
C479        C  0.17018806  0.98843908  0.13596058     0.03820
C480        C  0.19987322  0.98546054  0.16489557    -0.10270
H481        H  0.14057006  0.97814857  0.24804006     0.09410
H482        H  0.10756191  0.99353770  0.12675758     0.06940
H483        H  0.23080852  0.98552721  0.15602546     0.06790
C484        C  0.31113187  0.97930898  0.32791564     0.03830
C485        C  0.35194955  0.97951723  0.31720961    -0.12320
C486        C  0.38110514  0.97794916  0.34671694     0.01330
C487        C  0.36874796  0.97782406  0.38643706    -0.10850
C488        C  0.32885871  0.97756003  0.39816298     0.03820
C489        C  0.29978778  0.97808544  0.36854532    -0.10270
H490        H  0.36071285  0.98066676  0.28626252     0.09410
H491        H  0.39119443  0.97861844  0.40927643     0.06940
H492        H  0.26869507  0.97754615  0.37681125     0.06790
C493        C  0.99519844  0.17270759  0.20708340     0.03830
C494        C  0.99770079  0.13220216  0.21808707    -0.12320
C495        C  0.99979706  0.10287230  0.18862446     0.01330
C496        C  0.99896274  0.11491274  0.14886706    -0.10850
C497        C  0.99527246  0.15454350  0.13706334     0.03820
C498        C  0.99387469  0.18382858  0.16656170    -0.10270
H499        H  0.99843946  0.12391522  0.24912955     0.09410
H500        H  0.00106579  0.09244810  0.12601110     0.06940
H501        H  0.99169807  0.21481798  0.15835880     0.06790
C502        C  0.99522451  0.29459658  0.32838918     0.03830
C503        C  0.99551552  0.28308580  0.36881881    -0.12320
C504        C  0.99769815  0.31208398  0.39849222     0.01330
C505        C  0.00100517  0.35177793  0.38689845    -0.10850
C506        C  0.99921305  0.36433579  0.34730523     0.03820
C507        C  0.99624741  0.33525134  0.31766247    -0.10270
H508        H  0.99387902  0.25202157  0.37681153     0.09410
H509        H  0.00458521  0.37387146  0.40989621     0.06940
H510        H  0.99535755  0.34382880  0.28670535     0.06790
O511        O  0.05431503  0.97524302  0.16549303    -0.71080
O512        O  0.94542949  0.99157834  0.16586558    -0.71300
O513        O  0.00787254  0.03781732  0.16539976    -0.71160
O514        O  0.99197502  0.92910913  0.16611330    -0.71160
O515        O  0.00334961  0.92632967  0.22924192    -0.71120
O516        O  0.99665208  0.04161098  0.22854629    -0.71140
O517        O  0.94231737  0.98071417  0.22906756    -0.71090
O518        O  0.05770346  0.98719694  0.22853633    -0.71270
V519        V  0.99990019  0.98345351  0.16717860     1.35240
V520        V  0.00001251  0.98396167  0.22850356     1.35170
C521        C  0.07544045  0.98174319  0.19550356     0.78160
C522        C  0.92441147  0.98564893  0.19615286     0.78220
C523        C  0.00201050  0.05916896  0.19552608     0.78090
C524        C  0.99793599  0.90827551  0.19645172     0.78050
O525        O  0.20820219  0.04038977  0.01747370    -0.71080
O526        O  0.20866546  0.92494278  0.01463158    -0.71300
O527        O  0.20772232  0.98383021  0.95838922    -0.71160
O528        O  0.20916693  0.98166326  0.07395983    -0.71160
O529        O  0.14617824  0.99383833  0.07097294    -0.71120
O530        O  0.14492079  0.97152713  0.96315303    -0.71140
O531        O  0.14591985  0.92879678  0.02793161    -0.71090
O532        O  0.14517649  0.03654383  0.00601949    -0.71270
V533        V  0.20817237  0.98268724  0.01613117     1.35240
V534        V  0.14695081  0.98266914  0.01701829     1.35170
C535        C  0.17519648  0.05792064  0.01142711     0.78160
C536        C  0.17590523  0.90740292  0.02138697     0.78220
C537        C  0.17469218  0.97712408  0.94133215     0.78090
C538        C  0.17654158  0.98858048  0.09199217     0.78050
O539        O  0.05547110  0.19348702  0.01552593    -0.71080
O540        O  0.94009640  0.19396935  0.02054107    -0.71300
O541        O  0.00007724  0.19408417  0.07569152    -0.71160
O542        O  0.99554875  0.19344093  0.96022536    -0.71160
O543        O  0.00877493  0.13073408  0.96415708    -0.71120
O544        O  0.98669086  0.13144955  0.07214000    -0.71140
O545        O  0.94376540  0.13121179  0.00729971    -0.71090
O546        O  0.05172568  0.13088873  0.02908922    -0.71270
V547        V  0.99778347  0.19353807  0.01797749     1.35240
V548        V  0.99774246  0.13240878  0.01815932     1.35170
C549        C  0.07305162  0.16065812  0.02224439     0.78160
C550        C  0.92247882  0.16118774  0.01417994     0.78220
C551        C  0.99332231  0.16142550  0.09338746     0.78090
C552        C  0.00243667  0.16056860  0.94269173     0.78050
C553        C  0.18687801  0.48198358  0.32988145     0.03830
C554        C  0.19814445  0.48051438  0.37036453    -0.12320
C555        C  0.16889756  0.47897733  0.39991201     0.01330
C556        C  0.12904610  0.47966449  0.38815495    -0.10850
C557        C  0.11694277  0.48246320  0.34850903     0.03820
C558        C  0.14627081  0.48302987  0.31899504    -0.10270
H559        H  0.22924256  0.48008464  0.37848427     0.09410
H560        H  0.10641377  0.47846377  0.41090065     0.06940
H561        H  0.13788088  0.48465075  0.28801148     0.06790
C562        C  0.30855673  0.48211178  0.20823725     0.03830
C563        C  0.34913052  0.48032509  0.21923412    -0.12320
C564        C  0.37848095  0.47890161  0.18974378     0.01330
C565        C  0.36643923  0.48011737  0.15003393    -0.10850
C566        C  0.32674435  0.48324182  0.13823621     0.03820
C567        C  0.29740456  0.48357657  0.16771558    -0.10270
H568        H  0.35745526  0.47950913  0.25027073     0.09410
H569        H  0.38901564  0.47890577  0.12722426     0.06940
H570        H  0.26636798  0.48534412  0.15952038     0.06790
O571        O  0.05560748  0.48059888  0.30862137    -0.71080
O572        O  0.94023861  0.48731995  0.30787643    -0.71300
O573        O  0.00105022  0.54150944  0.30859093    -0.71160
O574        O  0.99510849  0.42615992  0.30799573    -0.71160
O575        O  0.00396850  0.42928367  0.37147433    -0.71120
O576        O  0.99070037  0.53836756  0.37194403    -0.71140
O577        O  0.94280060  0.47750897  0.37126784    -0.71090
O578        O  0.05195651  0.49019625  0.37205121    -0.71270
V579        V  0.99793616  0.48389116  0.30870770     1.35240
V580        V  0.99735101  0.48382008  0.37013750     1.35170
C581        C  0.07321858  0.48486962  0.34176258     0.78160
C582        C  0.92208237  0.48319763  0.34080979     0.78220
C583        C  0.99651861  0.55931755  0.34170004     0.78090
C584        C  0.99973154  0.40823501  0.34094033     0.78050
O585        O  0.28765575  0.42447134  0.01625815    -0.71080
O586        O  0.28829013  0.53975081  0.02193671    -0.71300
O587        O  0.28872086  0.48459082  0.96128621    -0.71160
O588        O  0.28726793  0.47937711  0.07671057    -0.71160
O589        O  0.35003340  0.49232728  0.07350003    -0.71120
O590        O  0.35137283  0.47083012  0.96541468    -0.71140
O591        O  0.35112320  0.53557530  0.00905862    -0.71090
O592        O  0.35022671  0.42764877  0.03022667    -0.71270
V593        V  0.28818764  0.48208779  0.01901556     1.35240
V594        V  0.34935142  0.48159375  0.01952408     1.35170
C595        C  0.32029099  0.40661188  0.02317562     0.78160
C596        C  0.32128257  0.55710768  0.01582517     0.78220
C597        C  0.32165717  0.47752240  0.94387204     0.78090
C598        C  0.31993501  0.48568334  0.09458054     0.78050
O599        O  0.20893928  0.48513525  0.46087968    -0.71080
O600        O  0.20943497  0.48198050  0.57636557    -0.71300
O601        O  0.20937671  0.42584611  0.51687592    -0.71160
O602        O  0.20890519  0.54125279  0.52044628    -0.71160
O603        O  0.14625065  0.53723547  0.50713138    -0.71120
O604        O  0.14676755  0.42974672  0.53090893    -0.71140
O605        O  0.14673465  0.49558014  0.57282091    -0.71090
O606        O  0.14638294  0.47152291  0.46526445    -0.71270
V607        V  0.20898600  0.48355639  0.51863099     1.35240
V608        V  0.14785213  0.48352120  0.51902578     1.35170
C609        C  0.17613638  0.47788703  0.44359645     0.78160
C610        C  0.17671359  0.48915777  0.59408558     0.78220
C611        C  0.17669416  0.40832580  0.52413334     0.78090
C612        C  0.17599049  0.55869869  0.51368783     0.78050
O613        O  0.44247781  0.19287429  0.51532451    -0.71080
O614        O  0.55780431  0.19234182  0.52120598    -0.71300
O615        O  0.50322550  0.19240449  0.46057600    -0.71160
O616        O  0.49712443  0.19287579  0.57591426    -0.71160
O617        O  0.50999865  0.13001286  0.57249648    -0.71120
O618        O  0.49026140  0.12971288  0.46427856    -0.71140
O619        O  0.55418200  0.12954390  0.50831532    -0.71090
O620        O  0.44581025  0.13011902  0.52836609    -0.71270
V621        V  0.50016014  0.19238154  0.51825769     1.35240
V622        V  0.50006399  0.13121039  0.51836949     1.35170
C623        C  0.42467324  0.16017957  0.52158634     0.78160
C624        C  0.57542803  0.15939152  0.51502825     0.78220
C625        C  0.49685834  0.15956105  0.44296367     0.78090
C626        C  0.50332879  0.16010588  0.59365040     0.78050
O627        O  0.43993834  0.48440699  0.22906025    -0.71080
O628        O  0.55533252  0.48010035  0.22817216    -0.71300
O629        O  0.49961051  0.53995094  0.22806015    -0.71160
O630        O  0.49570452  0.42456459  0.22889208    -0.71160
O631        O  0.50883588  0.42793672  0.16609174    -0.71120
O632        O  0.48598372  0.53568025  0.16544996    -0.71140
O633        O  0.55126602  0.49283543  0.16539119    -0.71090
O634        O  0.44350986  0.47055022  0.16641822    -0.71270
V635        V  0.49764820  0.48226423  0.22834246     1.35240
V636        V  0.49738180  0.48176182  0.16717556     1.35170
C637        C  0.42223416  0.47725751  0.19646382     0.78160
C638        C  0.57276550  0.48668364  0.19524859     0.78220
C639        C  0.49270333  0.55725787  0.19516408     0.78090
C640        C  0.50240473  0.40679220  0.19610094     0.78050
C641        C  0.68641993  0.48200368  0.20688972     0.03830
C642        C  0.64561010  0.48242631  0.21760877    -0.12320
C643        C  0.61648917  0.48543519  0.18820783     0.01330
C644        C  0.62875017  0.48591807  0.14850051    -0.10850
C645        C  0.66851957  0.48301354  0.13674529     0.03820
C646        C  0.69767206  0.48248066  0.16623427    -0.10270
H647        H  0.63682076  0.48107221  0.24853579     0.09410
H648        H  0.60636546  0.48810641  0.12567652     0.06940
H649        H  0.72872422  0.48199261  0.15780271     0.06790
C650        C  0.80838821  0.48117713  0.32902998     0.03830
C651        C  0.84906572  0.48315304  0.31792178    -0.12320
C652        C  0.87830674  0.48544827  0.34727722     0.01330
C653        C  0.86604284  0.48846192  0.38685731    -0.10850
C654        C  0.82672857  0.48318809  0.39900670     0.03820
C655        C  0.79752791  0.47973899  0.36977382    -0.10270
H656        H  0.85766190  0.48282490  0.28691414     0.09410
H657        H  0.88825974  0.49390757  0.40934711     0.06940
H658        H  0.76673758  0.47618703  0.37838057     0.06790
O659        O  0.64588109  0.42970202  0.00762730    -0.71080
O660        O  0.64690074  0.53789881  0.02787034    -0.71300
O661        O  0.64696183  0.49383351  0.96358581    -0.71160
O662        O  0.64595993  0.47397228  0.07179193    -0.71160
O663        O  0.70881314  0.48637697  0.07560753    -0.71120
O664        O  0.70963193  0.47992537  0.96026732    -0.71140
O665        O  0.70975195  0.54073349  0.01486160    -0.71090
O666        O  0.70856480  0.42546961  0.02097274    -0.71270
V667        V  0.64778111  0.48383479  0.01770367     1.35240
V668        V  0.70897004  0.48309941  0.01794486     1.35170
C669        C  0.67562605  0.40815867  0.01446131     0.78160
C670        C  0.67700774  0.55876960  0.02106875     0.78220
C671        C  0.67700478  0.48672533  0.94244822     0.78090
C672        C  0.67579493  0.48057690  0.09314115     0.78050
C673        C  0.80889921  0.17272500  0.01915809     0.03830
C674        C  0.84944463  0.18358796  0.01644835    -0.12320
C675        C  0.87889689  0.15424441  0.01716205     0.01330
C676        C  0.86713941  0.11467991  0.02136547    -0.10850
C677        C  0.82737729  0.10286418  0.02355554     0.03820
C678        C  0.79796387  0.13225693  0.02229247    -0.10270
H679        H  0.85772066  0.21447721  0.01354195     0.09410
H680        H  0.88996332  0.09209815  0.02262358     0.06940
H681        H  0.76696259  0.12399996  0.02408525     0.06790
C682        C  0.68681558  0.29464175  0.01881614     0.03830
C683        C  0.64626192  0.28372524  0.02113666    -0.12320
C684        C  0.61679843  0.31309143  0.02171673     0.01330
C685        C  0.62861691  0.35284912  0.01967811    -0.10850
C686        C  0.66836911  0.36461075  0.01680024     0.03820
C687        C  0.69773161  0.33516121  0.01660870    -0.10270
H688        H  0.63797143  0.25275052  0.02283129     0.09410
H689        H  0.60591635  0.37560640  0.02014898     0.06940
H690        H  0.72870379  0.34343381  0.01445595     0.06790
C691        C  0.81080193  0.98239930  0.20842698     0.03830
C692        C  0.85145382  0.98377563  0.21914060    -0.12320
C693        C  0.88069014  0.98296806  0.18954197     0.01330
C694        C  0.86849207  0.97958575  0.14994082    -0.10850
C695        C  0.82859143  0.97887632  0.13832232     0.03820
C696        C  0.79944750  0.98054951  0.16796918    -0.10270
H697        H  0.85996141  0.98573724  0.25008495     0.09410
H698        H  0.89107117  0.97803873  0.12713753     0.06940
H699        H  0.76833541  0.98017913  0.15992929     0.06790
C700        C  0.68932157  0.98480514  0.33043393     0.03830
C701        C  0.70012445  0.98522575  0.37110035    -0.12320
C702        C  0.67052789  0.98591928  0.40035081     0.01330
C703        C  0.63083019  0.98551468  0.38808231    -0.10850
C704        C  0.61918024  0.98610162  0.34819627     0.03820
C705        C  0.64883912  0.98533478  0.31905058    -0.10270
H706        H  0.73112191  0.98508464  0.37959858     0.09410
H707        H  0.60796410  0.98421965  0.41059514     0.06940
H708        H  0.64079052  0.98538437  0.28792635     0.06790
O709        O  0.78738648  0.04190267  0.01881529    -0.71080
O710        O  0.78746045  0.92645516  0.02092250    -0.71300
O711        O  0.78810336  0.98530684  0.07769123    -0.71160
O712        O  0.78670398  0.98312879  0.96216097    -0.71160
O713        O  0.84937263  0.99641368  0.96546161    -0.71120
O714        O  0.85073898  0.97173393  0.07273544    -0.71140
O715        O  0.84995542  0.93038197  0.00661086    -0.71090
O716        O  0.85018218  0.03769447  0.03149824    -0.71270
V717        V  0.78759861  0.98419728  0.01992378     1.35240
V718        V  0.84873395  0.98404260  0.01909557     1.35170
C719        C  0.82026297  0.05925341  0.02546717     0.78160
C720        C  0.82018639  0.90893955  0.01320482     0.78220
C721        C  0.82108639  0.97794953  0.09467101     0.78090
C722        C  0.81925279  0.99043820  0.94431132     0.78050
C723        C  0.68905827  0.16983169  0.51913990     0.03830
C724        C  0.64851898  0.18107602  0.51655095    -0.12320
C725        C  0.61898031  0.15208971  0.51781740     0.01330
C726        C  0.63058934  0.11244955  0.52210155    -0.10850
C727        C  0.67027497  0.10009665  0.52356637     0.03820
C728        C  0.69983562  0.12917319  0.52212736    -0.10270
H729        H  0.64029064  0.21202130  0.51348560     0.09410
H730        H  0.60764476  0.09021112  0.52390199     0.06940
H731        H  0.73079901  0.12052453  0.52374313     0.06790
C732        C  0.81033446  0.29214672  0.51904771     0.03830
C733        C  0.85109156  0.28127424  0.52033312    -0.12320
C734        C  0.88030936  0.31061486  0.51871886     0.01330
C735        C  0.86808995  0.35016363  0.51547620    -0.10850
C736        C  0.82832963  0.36220604  0.51734658     0.03820
C737        C  0.79910357  0.33281495  0.51801329    -0.10270
H738        H  0.85973204  0.25036472  0.52259062     0.09410
H739        H  0.89061867  0.37263525  0.51184071     0.06940
H740        H  0.76805446  0.34127714  0.51793586     0.06790
O741        O  0.64555626  0.96977515  0.57294220    -0.71080
O742        O  0.64707941  0.99317197  0.46542288    -0.71300
O743        O  0.64598075  0.92776058  0.50736390    -0.71160
O744        O  0.64679516  0.03525248  0.53104784    -0.71160
O745        O  0.70966790  0.03838904  0.51834022    -0.71120
O746        O  0.70852128  0.92300091  0.52110207    -0.71140
O747        O  0.70970835  0.97917136  0.46192453    -0.71090
O748        O  0.70833750  0.98219665  0.57750344    -0.71270
V749        V  0.64770030  0.98147686  0.51919830     1.35240
V750        V  0.70885607  0.98068128  0.51972726     1.35170
C751        C  0.67524613  0.97566157  0.59468329     0.78160
C752        C  0.67714922  0.98658660  0.44417308     0.78220
C753        C  0.67563545  0.90595638  0.51380294     0.78090
C754        C  0.67696565  0.05631361  0.52509533     0.78050
O755        O  0.78878931  0.47834900  0.57621784    -0.71080
O756        O  0.78755094  0.48490595  0.46093212    -0.71300
O757        O  0.78828478  0.42381041  0.51502862    -0.71160
O758        O  0.78816644  0.53916114  0.52188159    -0.71160
O759        O  0.85133083  0.53578094  0.51052527    -0.71120
O760        O  0.85160545  0.42695797  0.52494569    -0.71140
O761        O  0.85085211  0.47398434  0.46324414    -0.71090
O762        O  0.85201954  0.48871189  0.57227733    -0.71270
V763        V  0.78858320  0.48150808  0.51854095     1.35240
V764        V  0.84995300  0.48134903  0.51777516     1.35170
C765        C  0.82189852  0.48337998  0.59368534     0.78160
C766        C  0.82036795  0.48015739  0.44266978     0.78220
C767        C  0.82138445  0.40593998  0.51938272     0.78090
C768        C  0.82105893  0.55690423  0.51645408     0.78050
C769        C  0.72028229  0.20097845  0.51914370    -0.04640
C770        C  0.74927008  0.20194842  0.48877669    -0.01760
C771        C  0.77855605  0.23174599  0.48868798     0.03230
C772        C  0.77930102  0.26073998  0.51912927    -0.04640
C773        C  0.75033710  0.25966458  0.54955498    -0.01740
C774        C  0.72093407  0.23001533  0.54949442     0.03230
C775        C  0.74840321  0.17286839  0.45695032     0.37880
C776        C  0.75123532  0.28852543  0.58157684     0.37870
C777        C  0.69178309  0.22895571  0.58127484     0.36290
C778        C  0.80728968  0.23312263  0.45654654     0.36290
N779        N  0.66841133  0.22820068  0.60649081    -0.38530
N780        N  0.83027445  0.23414785  0.43098621    -0.38530
N781        N  0.75182658  0.31164658  0.60701294    -0.37970
N782        N  0.74779408  0.14959751  0.43164997    -0.37970
C783        C  0.77981143  0.98299289  0.23981269    -0.04640
C784        C  0.77286738  0.01783606  0.26215430    -0.01760
C785        C  0.74337027  0.01837386  0.29191084     0.03230
C786        C  0.72063899  0.98410332  0.29942194    -0.04640
C787        C  0.72755500  0.94926450  0.27708939    -0.01740
C788        C  0.75708472  0.94869656  0.24736989     0.03230
C789        C  0.79548049  0.05341314  0.25386601     0.37880
C790        C  0.70468365  0.91379968  0.28518626     0.37870
C791        C  0.76459916  0.91259111  0.22501400     0.36290
C792        C  0.73578739  0.05444546  0.31428607     0.36290
N793        N  0.77063186  0.88382580  0.20714654    -0.38530
N794        N  0.72965465  0.08317599  0.33217386    -0.38530
N795        N  0.68641091  0.88554739  0.29170331    -0.37970
N796        N  0.81353711  0.08176322  0.24717760    -0.37970
C797        C  0.77768328  0.20399558  0.01894118    -0.04640
C798        C  0.77571600  0.23212391  0.05005676    -0.01760
C799        C  0.74604088  0.26170175  0.05001219     0.03230
C800        C  0.71811514  0.26343068  0.01881608    -0.04640
C801        C  0.72012241  0.23533197  0.98766238    -0.01740
C802        C  0.74977982  0.20571499  0.98774310     0.03230
C803        C  0.80369080  0.23008258  0.08269508     0.37880
C804        C  0.69222260  0.23743369  0.95497025     0.37870
C805        C  0.75212597  0.17753736  0.95518275     0.36290
C806        C  0.74369292  0.28979965  0.08265406     0.36290
N807        N  0.75397312  0.15500212  0.92927191    -0.38530
N808        N  0.74186045  0.31227129  0.10862257    -0.38530
N809        N  0.66990159  0.23908831  0.92896476    -0.37970
N810        N  0.82607221  0.22847411  0.10865118    -0.37970
C811        C  0.71748619  0.48141108  0.23840254    -0.04640
C812        C  0.71806512  0.51129665  0.26797771    -0.01760
C813        C  0.74749659  0.51095207  0.29764842     0.03230
C814        C  0.77694655  0.48092756  0.29796786    -0.04640
C815        C  0.77644284  0.45108496  0.26841641    -0.01740
C816        C  0.74681267  0.45123044  0.23889119     0.03230
C817        C  0.68904099  0.54324691  0.26739091     0.37880
C818        C  0.80594843  0.41960568  0.26877627     0.37870
C819        C  0.74613920  0.41966313  0.20952423     0.36290
C820        C  0.74795233  0.54228580  0.32730275     0.36290
N821        N  0.74578749  0.39462186  0.18597034    -0.38530
N822        N  0.74812982  0.56713552  0.35106346    -0.38530
N823        N  0.82962488  0.39464771  0.26890360    -0.37970
N824        N  0.66579317  0.56860511  0.26710290    -0.37970
C825        C  0.21791121  0.48215243  0.29860587    -0.04640
C826        C  0.23958673  0.51703280  0.29080638    -0.01760
C827        C  0.26930403  0.51703271  0.26125629     0.03230
C828        C  0.27741369  0.48216197  0.23939465    -0.04640
C829        C  0.25571014  0.44729393  0.24716966    -0.01740
C830        C  0.22601273  0.44728765  0.27671620     0.03230
C831        C  0.23083463  0.55305652  0.31281575     0.37880
C832        C  0.26442982  0.41126040  0.22514397     0.37870
C833        C  0.20417532  0.41124456  0.28508796     0.36290
C834        C  0.29119569  0.55303208  0.25288899     0.36290
N835        N  0.18672959  0.38252954  0.29184397    -0.38530
N836        N  0.30869681  0.58171043  0.24612499    -0.38530
N837        N  0.27147717  0.38255166  0.20755481    -0.37970
N838        N  0.22375770  0.58176635  0.33039014    -0.37970
C839        C  0.99495692  0.20384561  0.23822953    -0.04640
C840        C  0.95914763  0.22293352  0.24903456    -0.01760
C841        C  0.95916811  0.25277942  0.27846738     0.03230
C842        C  0.99499796  0.26363304  0.29709604    -0.04640
C843        C  0.03078216  0.24454213  0.28627395    -0.01740
C844        C  0.03076214  0.21469957  0.25691938     0.03230
C845        C  0.92225874  0.21142214  0.23021489     0.37880
C846        C  0.06768907  0.25592806  0.30516940     0.37870
C847        C  0.06766606  0.19544273  0.24553414     0.36290
C848        C  0.92232060  0.27202304  0.28999074     0.36290
N849        N  0.09705511  0.18003496  0.23638472    -0.38530
N850        N  0.89295191  0.28739215  0.29927220    -0.38530
N851        N  0.09707808  0.26509931  0.32027826    -0.37970
N852        N  0.89286370  0.20214975  0.21517744    -0.37970
C853        C  0.22070861  0.98198710  0.23676918    -0.04640
C854        C  0.22218111  0.01213089  0.26600854    -0.01760
C855        C  0.25171089  0.01133160  0.29560928     0.03230
C856        C  0.28006686  0.98029603  0.29642057    -0.04640
C857        C  0.27859527  0.95015422  0.26715474    -0.01740
C858        C  0.24912931  0.95104860  0.23745278     0.03230
C859        C  0.19378155  0.04461437  0.26519663     0.37880
C860        C  0.30677211  0.91750305  0.26813911     0.37870
C861        C  0.24749194  0.91944945  0.20818267     0.36290
C862        C  0.25337715  0.04310849  0.32470608     0.36290
N863        N  0.24628620  0.89432372  0.18475540    -0.38530
N864        N  0.25457185  0.06836387  0.34799563    -0.38530
N865        N  0.32935442  0.89156517  0.26885246    -0.37970
N866        N  0.17102707  0.07040708  0.26464139    -0.37970
C867        C  0.21808602  0.20255359  0.01856255    -0.04640
C868        C  0.24868699  0.20165397  0.04724062    -0.01760
C869        C  0.27833414  0.23110764  0.04737200     0.03230
C870        C  0.27774253  0.26181999  0.01882530    -0.04640
C871        C  0.24715015  0.26268098  0.99013097    -0.01740
C872        C  0.21752153  0.23325803  0.99001038     0.03230
C873        C  0.24927137  0.17093040  0.07734944     0.37880
C874        C  0.24656901  0.29331882  0.95991625     0.37870
C875        C  0.18696787  0.23416510  0.95969993     0.36290
C876        C  0.30894270  0.23020406  0.07761124     0.36290
N877        N  0.16248472  0.23505002  0.93567870    -0.38530
N878        N  0.33348026  0.22932825  0.10157754    -0.38530
N879        N  0.24593723  0.31786661  0.93596901    -0.37970
N880        N  0.24990207  0.14631719  0.10122907    -0.37970
C881        C  0.22013237  0.26352221  0.51883982    -0.04640
C882        C  0.24930256  0.26288982  0.48858826    -0.01760
C883        C  0.27901016  0.23329407  0.48830639     0.03230
C884        C  0.27985844  0.20398227  0.51825398    -0.04640
C885        C  0.25072781  0.20464479  0.54854312    -0.01740
C886        C  0.22102754  0.23425825  0.54883818     0.03230
C887        C  0.24819839  0.29209738  0.45702340     0.37880
C888        C  0.25176747  0.17534548  0.58002346     0.37870
C889        C  0.19187830  0.23507028  0.58063316     0.36290
C890        C  0.30812373  0.23245620  0.45647682     0.36290
N891        N  0.16854126  0.23563891  0.60589617    -0.38530
N892        N  0.33142865  0.23185265  0.43118521    -0.38530
N893        N  0.25250971  0.15189153  0.60504032    -0.37970
N894        N  0.24739189  0.31546496  0.43192799    -0.37970
C895        C  0.49874885  0.26191873  0.23850629    -0.04640
C896        C  0.46943125  0.26230334  0.26863640    -0.01760
C897        C  0.46913521  0.23266185  0.29809353     0.03230
C898        C  0.49832508  0.20236336  0.29796313    -0.04640
C899        C  0.52776209  0.20208583  0.26790302    -0.01740
C900        C  0.52788442  0.23160872  0.23828513     0.03230
C901        C  0.43880127  0.29271147  0.26890025     0.37880
C902        C  0.55867532  0.17197191  0.26787241     0.37870
C903        C  0.55868073  0.23120609  0.20807105     0.36290
C904        C  0.43799734  0.23292793  0.32796660     0.36290
N905        N  0.58310414  0.23072997  0.18385506    -0.38530
N906        N  0.41330788  0.23331843  0.35191284    -0.38530
N907        N  0.58321348  0.14785658  0.26769699    -0.37970
N908        N  0.41453170  0.31709344  0.26926814    -0.37970
C909        C  0.21740241  0.70371547  0.51973033    -0.04640
C910        C  0.21773629  0.73350348  0.49026093    -0.01760
C911        C  0.24719929  0.76313372  0.49061800     0.03230
C912        C  0.27649506  0.76349855  0.52065792    -0.04640
C913        C  0.27600431  0.73376745  0.55024182    -0.01740
C914        C  0.24673374  0.70397453  0.54967204     0.03230
C915        C  0.18830318  0.73317644  0.45886597     0.37880
C916        C  0.30507567  0.73422698  0.58197318     0.37870
C917        C  0.24636129  0.67402585  0.58055898     0.36290
C918        C  0.24789974  0.79261222  0.45928993     0.36290
N919        N  0.24618261  0.65001372  0.60504871    -0.38530
N920        N  0.24834269  0.81619814  0.43439035    -0.38530
N921        N  0.32837283  0.73444027  0.60716029    -0.37970
N922        N  0.16472568  0.73302719  0.43394135    -0.37970
C923        C  0.99475540  0.76349203  0.24005189    -0.04160
C924        C  0.96521214  0.76312797  0.26996661    -0.01760
C925        C  0.96564684  0.73358126  0.29959104     0.03230
C926        C  0.99559736  0.70408223  0.29957987    -0.04640
C927        C  0.02509168  0.70444159  0.26961902    -0.01740
C928        C  0.02469267  0.73395451  0.24008156     0.03230
C929        C  0.93372598  0.79261535  0.26983097     0.37880
C930        C  0.05664159  0.67497035  0.26962690     0.37870
C931        C  0.05589784  0.73439740  0.21027074     0.36290
C932        C  0.93463385  0.73306518  0.32955051     0.36290
N933        N  0.08065466  0.73459761  0.18639626    -0.38530
N934        N  0.90999850  0.73275935  0.35354713    -0.38530
N935        N  0.08166171  0.65135589  0.26948325    -0.37970
N936        N  0.90872515  0.81624898  0.26984059    -0.37970
C937        C  0.21908546  0.76220068  0.02038837    -0.04640
C938        C  0.24918892  0.76194756  0.04959199    -0.01760
C939        C  0.27872441  0.73217692  0.04929907     0.03230
C940        C  0.27879290  0.70240309  0.01956327    -0.04640
C941        C  0.24879999  0.70283272  0.99019162    -0.01740
C942        C  0.21905578  0.73240828  0.99072532     0.03230
C943        C  0.24939218  0.79181963  0.08071033     0.37880
C944        C  0.24892800  0.67342769  0.95862728     0.37870
C945        C  0.18888827  0.73255731  0.96002005     0.36290
C946        C  0.30847231  0.73180518  0.08041462     0.36290
N947        N  0.16469168  0.73245655  0.93569478    -0.38530
N948        N  0.33232952  0.73174234  0.10507471    -0.38530
N949        N  0.24881657  0.64985638  0.93359409    -0.37970
N950        N  0.24977903  0.81579872  0.10534584    -0.37970
C951        C  0.49970165  0.70218425  0.23763185    -0.04640
C952        C  0.52739896  0.70051966  0.26912078    -0.01760
C953        C  0.52751589  0.73017736  0.29874312     0.03230
C954        C  0.49992633  0.76191018  0.29730956    -0.04640
C955        C  0.47224770  0.76357867  0.26581035    -0.01740
C956        C  0.47213594  0.73393643  0.23619070     0.03230
C957        C  0.55657282  0.66875571  0.27072391     0.37880
C958        C  0.44303366  0.79530721  0.26421938     0.37870
C959        C  0.44280428  0.73576912  0.20472951     0.36290
C960        C  0.55683186  0.72836722  0.33021777     0.36290
N961        N  0.41960078  0.73743593  0.17950651    -0.38530
N962        N  0.58003797  0.72672047  0.35544021    -0.38530
N963        N  0.41991530  0.82073461  0.26273217    -0.37970
N964        N  0.57965791  0.64329804  0.27222288    -0.37970
C965        C  0.21969192  0.48286169  0.73907858    -0.04640
C966        C  0.21835006  0.51077656  0.77051222    -0.01760
C967        C  0.24790119  0.51064579  0.80011981     0.03230
C968        C  0.27920164  0.48254314  0.79877812    -0.04640
C969        C  0.28052063  0.45459983  0.76735480    -0.01740
C970        C  0.25100944  0.45479621  0.73769634     0.03230
C971        C  0.18704287  0.54045845  0.77203435     0.37880
C972        C  0.31174212  0.42482507  0.76588958     0.37870
C973        C  0.25251532  0.42531931  0.70623710     0.36290
C974        C  0.24645695  0.54026235  0.83145805     0.36290
N975        N  0.25391668  0.40198291  0.68101684    -0.38530
N976        N  0.24509799  0.56371792  0.85657088    -0.38530
N977        N  0.33676578  0.40124521  0.76452868    -0.37970
N978        N  0.16194265  0.56395323  0.77343521    -0.37970
C979        C  0.21620229  0.98286422  0.79622574    -0.04640
C980        C  0.24298860  0.01491305  0.79375924    -0.01760
C981        C  0.27276459  0.01515672  0.76428095     0.03230
C982        C  0.27592921  0.98339810  0.73699163    -0.04640
C983        C  0.24915879  0.95135164  0.73945020    -0.01740
C984        C  0.21940968  0.95107549  0.76896295     0.03230
C985        C  0.23942221  0.04808942  0.82107163     0.37880
C986        C  0.25290082  0.91809415  0.71226159     0.37870
C987        C  0.19273332  0.91750841  0.77193670     0.36290
C988        C  0.29973193  0.04851278  0.76156386     0.36290
N989        N  0.17140369  0.89079023  0.77433908    -0.38530
N990        N  0.32133656  0.07502866  0.75939776    -0.38530
N991        N  0.25590583  0.89159130  0.69055466    -0.37970
N992        N  0.23660708  0.07451052  0.84290256    -0.37970
C993        C  0.99622871  0.26122238  0.73769226    -0.04640
C994        C  0.96405638  0.25849370  0.76459284    -0.01760
C995        C  0.96415387  0.22928579  0.79452397     0.03230
C996        C  0.99623864  0.20239257  0.79760291    -0.04640
C997        C  0.02829421  0.20498558  0.77063460    -0.01740
C998        C  0.02837066  0.23433542  0.74090900     0.03230
C999        C  0.93037576  0.28518428  0.76098114     0.37880
C1000       C  0.06178660  0.17801927  0.77409092     0.37870
C1001       C  0.06218099  0.23752933  0.71433198     0.36290
C1002       C  0.93082598  0.22640598  0.82171434     0.36290
N1003       N  0.08908298  0.24004926  0.69307206    -0.38530
N1004       N  0.90431904  0.22412592  0.84349191    -0.38530
N1005       N  0.08843366  0.15644930  0.77683093    -0.37970
N1006       N  0.90355480  0.30652839  0.75815006    -0.37970
C1007       C  0.49998200  0.20328440  0.73846861    -0.04640
C1008       C  0.52944081  0.20309710  0.76827512    -0.01760
C1009       C  0.52992894  0.23302787  0.79760633     0.03230
C1010       C  0.50053309  0.26318036  0.79786583    -0.04640
C1011       C  0.47092407  0.26316872  0.76809923    -0.01740
C1012       C  0.47084276  0.23358135  0.73845081     0.03230
C1013       C  0.55990280  0.17252897  0.76837968     0.37880
C1014       C  0.43970265  0.29297646  0.76838269     0.37870
C1015       C  0.44002212  0.23389514  0.70839544     0.36290
C1016       C  0.56145021  0.23318086  0.82691634     0.36290
N1017       N  0.41562082  0.23431531  0.68427953    -0.38530
N1018       N  0.58646902  0.23311819  0.85039718    -0.38530
N1019       N  0.41493548  0.31685778  0.76838006    -0.37970
N1020       N  0.58403121  0.14800876  0.76864918    -0.37970
C1021       C  0.99757446  0.76181630  0.79932468    -0.04640
C1022       C  0.96809391  0.73201204  0.79977691    -0.01760
C1023       C  0.96780754  0.70217816  0.77031558     0.03230
C1024       C  0.99684966  0.70189662  0.73992475    -0.04640
C1025       C  0.02623145  0.73175121  0.73939150    -0.01740
C1026       C  0.02666935  0.76144274  0.76894947     0.03230
C1027       C  0.93728130  0.73250253  0.82997624     0.37880
C1028       C  0.05673016  0.73153119  0.70887219     0.37870
C1029       C  0.05782739  0.79107197  0.76850428     0.36290
C1030       C  0.93688472  0.67231211  0.77079934     0.36290
N1031       N  0.08253393  0.81482387  0.76798756    -0.38530
N1032       N  0.91234262  0.64839035  0.77130465    -0.38530
N1033       N  0.08089656  0.73152022  0.68439951    -0.37970
N1034       N  0.91280411  0.73274450  0.85414157    -0.37970
C1035       C  0.77572582  0.98334761  0.79952568    -0.04640
C1036       C  0.74616106  0.95368679  0.79968169    -0.01760
C1037       C  0.71665373  0.95318118  0.77003713     0.03230
C1038       C  0.71640014  0.98231513  0.73988508    -0.04640
C1039       C  0.74596394  0.01198312  0.73974184    -0.01740
C1040       C  0.77543843  0.01250557  0.76938623     0.03230
C1041       C  0.74663886  0.92293012  0.82974870     0.37880
C1042       C  0.74564184  0.04264894  0.70956337     0.37870
C1043       C  0.80499871  0.04373064  0.76927054     0.36290
C1044       C  0.68713571  0.92192922  0.77005212     0.36290
N1045       N  0.82868286  0.06850464  0.76905449    -0.38530
N1046       N  0.66349972  0.89710884  0.77015424    -0.38530
N1047       N  0.74552393  0.06698390  0.68539278    -0.37970
N1048       N  0.74692600  0.89849687  0.85381751    -0.37970
C1049       C  0.71916372  0.70376626  0.01769569    -0.04640
C1050       C  0.71886730  0.73397953  0.04689501    -0.01760
C1051       C  0.74822930  0.76373033  0.04665209     0.03230
C1052       C  0.77813745  0.76373119  0.01707208    -0.04640
C1053       C  0.77834290  0.73353069  0.98781525    -0.01740
C1054       C  0.74914132  0.70368021  0.98821768     0.03230
C1055       C  0.68885598  0.73402596  0.07788098     0.37880
C1056       C  0.80802594  0.73359849  0.95649021     0.37870
C1057       C  0.74951193  0.67336488  0.95753114     0.36290
C1058       C  0.74809778  0.79379849  0.07756537     0.36290
N1059       N  0.74998288  0.64906894  0.93320580    -0.38530
N1060       N  0.74784245  0.81787766  0.10210899    -0.38530
N1061       N  0.83181427  0.73349598  0.93164688    -0.37970
N1062       N  0.66479909  0.73418838  0.10246233    -0.37970
C1063       C  0.77915089  0.48361084  0.73843412    -0.04640
C1064       C  0.75845731  0.51892164  0.74767799    -0.01760
C1065       C  0.72883257  0.51888640  0.77729637     0.03230
C1066       C  0.71982502  0.48354173  0.79771917    -0.04640
C1067       C  0.74051732  0.44823293  0.78847595    -0.01740
C1068       C  0.77014360  0.44826572  0.75887538     0.03230
C1069       C  0.76809034  0.55536596  0.72705008     0.37880
C1070       C  0.73090667  0.41178562  0.80912380     0.37870
C1071       C  0.79103000  0.41183252  0.74900729     0.36290
C1072       C  0.70792624  0.55529018  0.78718648     0.36290
N1073       N  0.80771496  0.38280770  0.74105593    -0.38530
N1074       N  0.69122311  0.58429380  0.79517176    -0.38530
N1075       N  0.72315495  0.38275124  0.82562211    -0.37970
N1076       N  0.77586185  0.58439965  0.71056093    -0.37970
C1077       C  0.77695227  0.70147431  0.51613591    -0.04640
C1078       C  0.77402657  0.72880814  0.54789576    -0.01760
C1079       C  0.74423915  0.75829362  0.54780773     0.03230
C1080       C  0.71714471  0.76074591  0.51592312    -0.04640
C1081       C  0.71999575  0.73332369  0.48422607    -0.01740
C1082       C  0.74974621  0.70379610  0.48435274     0.03230
C1083       C  0.80114912  0.72606606  0.58119537     0.37880
C1084       C  0.69294230  0.73609464  0.45087813     0.37870
C1085       C  0.75293822  0.67639054  0.45120256     0.36290
C1086       C  0.74095971  0.78558313  0.58105354     0.36290
N1087       N  0.75542495  0.65445308  0.42483206    -0.38530
N1088       N  0.73840164  0.80740628  0.60751342    -0.38530
N1089       N  0.67127655  0.73827704  0.42436240    -0.37970
N1090       N  0.82285107  0.72391069  0.60768397    -0.37970
C1091       C  0.50083717  0.76279552  0.73803975    -0.04640
C1092       C  0.53138855  0.76137367  0.76674412    -0.01760
C1093       C  0.53115120  0.73185998  0.79635790     0.03230
C1094       C  0.50052341  0.70335242  0.79740220    -0.04640
C1095       C  0.47004306  0.70470745  0.76866538    -0.01740
C1096       C  0.47012518  0.73432895  0.73921827     0.03230
C1097       C  0.56368272  0.78971042  0.76533420     0.37880
C1098       C  0.43790751  0.67616216  0.76992687     0.37870
C1099       C  0.43788148  0.73605785  0.71075040     0.36290
C1100       C  0.56298486  0.73034641  0.82526386     0.36290
N1101       N  0.41225117  0.73734049  0.68797388    -0.38530
N1102       N  0.58827317  0.72922010  0.84842420    -0.38530
N1103       N  0.41238380  0.65330322  0.77084934    -0.37970
N1104       N  0.58935186  0.81240304  0.76430631    -0.37970
loop_ 
_geom_bond_atom_site_label_1 
_geom_bond_atom_site_label_2 
_geom_bond_distance 
_geom_bond_site_symmetry_2 
_ccdc_geom_bond_type 
C1            C2   1.420       .  A
C1            C6   1.420       .  A
C1         C1091   1.490       .  S
C2            C3   1.399       .  A
C2            H7   1.084       .  S
C3            C4   1.400       .  A
C3          C140   1.492       .  S
C4            C5   1.400       .  A
C4            H8   1.082       .  S
C5            C6   1.399       .  A
C5          C363   1.492       .  S
C6            H9   1.084       .  S
C10          C11   1.419       .  A
C10          C15   1.420       .  A
C10        C1094   1.488       .  S
C11          C12   1.399       .  A
C11          H16   1.084       .  S
C12          C13   1.398       .  A
C12         C235   1.489       .  S
C13          C14   1.400       .  A
C13          H17   1.081       .  S
C14          C15   1.400       .  A
C14         C268   1.492       .  S
C15          H18   1.084       .  S
C19          C20   1.419       .  A
C19          C24   1.420       .  A
C19        C1077   1.488       .  S
C20          C21   1.400       .  A
C20          H25   1.084       .  S
C21          C22   1.400       .  A
C21         C768   1.492       .  S
C22          C23   1.400       .  A
C22          H26   1.082       .  S
C23          C24   1.400       .  A
C23         C348   1.492       .  S
C24          H27   1.084       .  S
C28          C29   1.420       .  A
C28          C33   1.419       .  A
C28        C1080   1.488       .  S
C29          C30   1.400       .  A
C29          H34   1.084       .  S
C30          C31   1.400       .  A
C30         C362   1.492       .  S
C31          C32   1.400       .  A
C31          H35   1.081       .  S
C32          C33   1.399       .  A
C32         C753   1.491       .  S
C33          H36   1.083       .  S
C37          C38   1.417       .  A
C37          C42   1.417       .  A
C37        C1063   1.481       .  S
C38          C39   1.399       .  A
C38          H43   1.084       .  S
C39          C40   1.401       .  A
C39         C220   1.491       .  S
C40          C41   1.401       .  A
C40          H44   1.081       .  S
C41          C42   1.400       .  A
C41         C765   1.493       .  S
C42          H45   1.083       .  S
C46          C47   1.418       .  A
C46          C51   1.418       .  A
C46        C1066   1.481       .  S
C47          C48   1.400       .  A
C47          H52   1.084       .  S
C48          C49   1.401       .  A
C48         C234   1.493       .  S
C49          C50   1.400       .  A
C49          H53   1.081       .  S
C50          C51   1.400       .  A
C50         C671   1.492       .  S
C51          H54   1.084       .  S
C55          C56   1.421       .  A
C55          C60   1.421       .  A
C55        C1052   1.493       .  S
C56          C57   1.400       .  A
C56          H61   1.084       .  S
C57          C58   1.400       .  A
C57         C720   1.494       .  S
C58          C59   1.400       .  A
C58          H62   1.081       .  S
C59          C60   1.399       .  A
C59         C316   1.493       .  S
C60          H63   1.084       .  S
C64          C65   1.421       .  A
C64          C69   1.421       .  A
C64        C1049   1.492       .  S
C65          C66   1.399       .  A
C65          H70   1.084       .  S
C66          C67   1.399       .  A
C66         C670   1.491       .  S
C67          C68   1.399       .  A
C67          H71   1.081       .  S
C68          C69   1.400       .  A
C68         C266   1.493       .  S
C69          H72   1.084       .  S
C73          C74   1.420       .  A
C73          C78   1.421       .  A
C73        C1035   1.491       .  S
C74          C75   1.399       .  A
C74          H79   1.084       .  S
C75          C76   1.398       .  A
C75         C188   1.490       .  S
C76          C77   1.400       .  A
C76          H80   1.081       .  S
C77          C78   1.401       .  A
C77         C722   1.493       .  S
C78          H81   1.084       .  S
C82          C83   1.420       .  A
C82          C87   1.420       .  A
C82        C1038   1.491       .  S
C83          C84   1.399       .  A
C83          H88   1.084       .  S
C84          C85   1.401       .  A
C84         C751   1.493       .  S
C85          C86   1.400       .  A
C85          H89   1.081       .  S
C86          C87   1.400       .  A
C86         C138   1.493       .  S
C87          H90   1.084       .  S
C91          C92   1.421       .  A
C91          C96   1.421   1_655  A
C91        C1021   1.493       .  S
C92          C93   1.399       .  A
C92          H97   1.083       .  S
C93          C94   1.400       .  A
C93         C190   1.493       .  S
C94          C95   1.399   1_655  A
C94          H98   1.081       .  S
C95          C96   1.400       .  A
C95         C318   1.493       .  S
C96          H99   1.083       .  S
C100        C101   1.421       .  A
C100        C105   1.420       .  A
C100       C1024   1.492       .  S
C101        C102   1.401       .  A
C101        H106   1.083   1_655  S
C102        C103   1.400       .  A
C102        C222   1.493   1_655  S
C103        C104   1.400       .  A
C103        H107   1.081       .  S
C104        C105   1.399       .  A
C104        C349   1.492       .  S
C105        H108   1.083       .  S
C109        C110   1.421       .  A
C109        C114   1.420       .  A
C109       C1007   1.490       .  S
C110        C111   1.400       .  A
C110        H115   1.083       .  S
C111        C112   1.400       .  A
C111        C139   1.493       .  S
C112        C113   1.399       .  A
C112        H116   1.081       .  S
C113        C114   1.398       .  A
C113        C626   1.490       .  S
C114        H117   1.084       .  S
C118        C119   1.421       .  A
C118        C123   1.421       .  A
C118       C1010   1.494       .  S
C119        C120   1.399       .  A
C119        H124   1.083       .  S
C120        C121   1.399       .  A
C120        C236   1.492       .  S
C121        C122   1.399       .  A
C121        H125   1.081       .  S
C122        C123   1.399       .  A
C122        C410   1.491       .  S
C123        H126   1.083       .  S
O127        V135   1.945       .  S
O127        C137   1.274       .  A
O128        V135   1.946       .  S
O128        C138   1.275       .  A
O129        V135   1.947   1_545  S
O129        C139   1.275       .  A
O130        V135   1.947       .  S
O130        C140   1.275       .  A
O131        V136   1.854       .  S
O131        C140   1.258       .  A
O132        V136   1.854   1_545  S
O132        C139   1.258       .  A
O133        V136   1.858       .  S
O133        C138   1.258       .  A
O134        V136   1.856       .  S
O134        C137   1.258       .  A
V135        V136   2.062       .  T
C137        C170   1.491       .  S
C141        C142   1.420       .  A
C141        C146   1.419       .  A
C141        C996   1.487       .  S
C142        C143   1.401   1_655  A
C142        H147   1.084       .  S
C143        C144   1.401       .  A
C143        C552   1.494       .  S
C144        C145   1.401   1_455  A
C144        H148   1.081       .  S
C145        C146   1.399       .  A
C145        C189   1.492       .  S
C146        H149   1.084       .  S
C150        C151   1.419       .  A
C150        C155   1.421       .  A
C150        C993   1.490       .  S
C151        C152   1.399       .  A
C151        H156   1.084       .  S
C152        C153   1.399   1_655  A
C152        C221   1.491       .  S
C153        C154   1.400       .  A
C153        H157   1.081       .  S
C154        C155   1.401   1_455  A
C154        C442   1.494       .  S
C155        H158   1.084       .  S
C159        C160   1.419       .  A
C159        C164   1.419       .  A
C159        C979   1.487       .  S
C160        C161   1.400       .  A
C160        H165   1.083       .  S
C161        C162   1.401       .  A
C161        C537   1.492       .  S
C162        C163   1.399       .  A
C162        H166   1.081       .  S
C163        C164   1.400       .  A
C163        C187   1.492       .  S
C164        H167   1.084       .  S
C168        C169   1.418       .  A
C168        C173   1.419       .  A
C168        C982   1.486       .  S
C169        C170   1.399       .  A
C169        H174   1.083       .  S
C170        C171   1.400       .  A
C171        C172   1.401       .  A
C171        H175   1.081       .  S
C172        C173   1.401       .  A
C172        C453   1.493       .  S
C173        H176   1.084       .  S
O177        V185   1.945   1_455  S
O177        C187   1.274       .  A
O178        V185   1.944       .  S
O178        C188   1.274       .  A
O179        V185   1.948   1_545  S
O179        C189   1.275       .  A
O180        V185   1.948       .  S
O180        C190   1.275       .  A
O181        V186   1.852   1_455  S
O181        C190   1.257   1_455  A
O182        V186   1.854   1_545  S
O182        C189   1.257       .  A
O183        V186   1.855       .  S
O183        C188   1.258       .  A
O184        V186   1.858   1_455  S
O184        C187   1.259       .  A
V185        V186   2.064       .  T
C191        C192   1.422       .  A
C191        C196   1.421       .  A
C191        C965   1.494       .  S
C192        C193   1.400       .  A
C192        H197   1.084       .  S
C193        C194   1.399       .  A
C193        C610   1.493       .  S
C194        C195   1.399       .  A
C194        H198   1.081       .  S
C195        C196   1.399       .  A
C195        C219   1.492       .  S
C196        H199   1.084       .  S
C200        C201   1.421       .  A
C200        C205   1.421       .  A
C200        C968   1.495       .  S
C201        C202   1.400       .  A
C201        H206   1.084       .  S
C202        C203   1.401       .  A
C202        C233   1.493       .  S
C203        C204   1.401       .  A
C203        H207   1.081       .  S
C204        C205   1.400       .  A
C204        C597   1.494       .  S
C205        H208   1.083       .  S
O209        V217   1.946   1_455  S
O209        C219   1.275       .  A
O210        V217   1.946       .  S
O210        C220   1.275       .  A
O211        V217   1.946   1_455  S
O211        C221   1.274   1_455  A
O212        V217   1.947       .  S
O212        C222   1.275   1_655  A
O213        V218   1.858   1_455  S
O213        C222   1.258       .  A
O214        V218   1.855       .  S
O214        C221   1.258       .  A
O215        V218   1.856       .  S
O215        C220   1.258       .  A
O216        V218   1.855   1_455  S
O216        C219   1.258       .  A
V217        V218   2.062       .  T
O223        V231   1.857       .  S
O223        C233   1.257       .  A
O224        V231   1.852       .  S
O224        C234   1.257       .  A
O225        V231   1.856       .  S
O225        C235   1.258       .  A
O226        V231   1.856       .  S
O226        C236   1.258       .  A
O227        V232   1.944       .  S
O227        C236   1.274       .  A
O228        V232   1.944       .  S
O228        C235   1.273       .  A
O229        V232   1.948       .  S
O229        C234   1.275       .  A
O230        V232   1.948       .  S
O230        C233   1.276       .  A
V231        V232   2.062       .  T
C237        C238   1.420       .  A
C237        C242   1.420       .  A
C237        C951   1.494       .  S
C238        C239   1.399       .  A
C238        H243   1.083       .  S
C239        C240   1.401       .  A
C239        C639   1.492       .  S
C240        C241   1.401       .  A
C240        H244   1.082       .  S
C241        C242   1.399       .  A
C241        C267   1.492       .  S
C242        H245   1.083       .  S
C246        C247   1.421       .  A
C246        C251   1.421       .  A
C246        C954   1.494       .  S
C247        C248   1.399       .  A
C247        H252   1.083       .  S
C248        C249   1.399       .  A
C248        C396   1.492       .  S
C249        C250   1.400       .  A
C249        H253   1.081       .  S
C250        C251   1.399       .  A
C250        C364   1.492       .  S
C251        H254   1.083       .  S
O255        V263   1.857       .  S
O255        C265   1.258       .  A
O256        V263   1.855       .  S
O256        C266   1.258       .  A
O257        V263   1.859       .  S
O257        C267   1.258       .  A
O258        V263   1.853   1_556  S
O258        C268   1.258       .  A
O259        V264   1.946   1_556  S
O259        C268   1.274       .  A
O260        V264   1.946       .  S
O260        C267   1.275       .  A
O261        V264   1.946       .  S
O261        C266   1.274       .  A
O262        V264   1.945       .  S
O262        C265   1.274       .  A
V263        V264   2.062       .  T
C265        C280   1.492       .  S
C269        C270   1.422       .  A
C269        C274   1.422       .  A
C269        C937   1.493       .  S
C270        C271   1.400       .  A
C270        H275   1.083       .  S
C271        C272   1.399       .  A
C271        C536   1.494       .  S
C272        C273   1.400       .  A
C272        H276   1.081       .  S
C273        C274   1.400       .  A
C273        C315   1.493       .  S
C274        H277   1.083       .  S
C278        C279   1.421       .  A
C278        C283   1.421       .  A
C278        C940   1.495       .  S
C279        C280   1.399       .  A
C279        H284   1.083       .  S
C280        C281   1.400       .  A
C281        C282   1.400       .  A
C281        H285   1.081       .  S
C282        C283   1.400       .  A
C282        C596   1.493       .  S
C283        H286   1.083       .  S
C287        C288   1.421       .  A
C287        C292   1.421       .  A
C287        C923   1.491       .  S
C288        C289   1.400       .  A
C288        H293   1.084       .  S
C289        C290   1.399   1_655  A
C289        C524   1.491       .  S
C290        C291   1.397   1_455  A
C290        H294   1.082       .  S
C291        C292   1.399       .  A
C291        C317   1.489       .  S
C292        H295   1.084       .  S
C296        C297   1.420       .  A
C296        C301   1.421       .  A
C296        C926   1.491       .  S
C297        C298   1.398       .  A
C297        H302   1.084       .  S
C298        C299   1.399   1_655  A
C298        C583   1.490       .  S
C299        C300   1.401       .  A
C299        H303   1.081       .  S
C300        C301   1.401   1_455  A
C300        C350   1.494       .  S
C301        H304   1.084       .  S
O305        V313   1.853   1_455  S
O305        C315   1.257       .  A
O306        V313   1.853       .  S
O306        C316   1.257       .  A
O307        V313   1.855       .  S
O307        C317   1.258       .  A
O308        V313   1.858   1_456  S
O308        C318   1.259       .  A
O309        V314   1.946   1_556  S
O309        C318   1.274   1_655  A
O310        V314   1.944   1_455  S
O310        C317   1.274   1_455  A
O311        V314   1.948       .  S
O311        C316   1.275       .  A
O312        V314   1.949   1_455  S
O312        C315   1.275       .  A
V313        V314   2.063       .  T
C319        C320   1.420       .  A
C319        C324   1.420       .  A
C319        C909   1.491       .  S
C320        C321   1.400       .  A
C320        H325   1.084       .  S
C321        C322   1.400       .  A
C321        C612   1.492       .  S
C322        C323   1.400       .  A
C322        H326   1.081       .  S
C323        C324   1.400       .  A
C323        C347   1.492       .  S
C324        H327   1.084       .  S
C328        C329   1.422       .  A
C328        C333   1.421       .  A
C328        C912   1.493       .  S
C329        C330   1.400       .  A
C329        H334   1.084       .  S
C330        C331   1.399       .  A
C330        C455   1.493       .  S
C331        C332   1.399       .  A
C331        H335   1.081       .  S
C332        C333   1.399       .  A
C332        C361   1.492       .  S
C333        H336   1.084       .  S
O337        V345   1.945   1_455  S
O337        C347   1.274       .  A
O338        V345   1.946       .  S
O338        C348   1.274       .  A
O339        V345   1.946       .  S
O339        C349   1.275       .  A
O340        V345   1.947       .  S
O340        C350   1.275   1_655  A
O341        V346   1.856   1_455  S
O341        C350   1.258       .  A
O342        V346   1.857       .  S
O342        C349   1.258       .  A
O343        V346   1.856       .  S
O343        C348   1.258       .  A
O344        V346   1.857   1_455  S
O344        C347   1.258       .  A
V345        V346   2.061       .  T
O351        V359   1.947       .  S
O351        C361   1.274       .  A
O352        V359   1.946       .  S
O352        C362   1.274       .  A
O353        V359   1.947       .  S
O353        C363   1.275       .  A
O354        V359   1.946       .  S
O354        C364   1.275       .  A
O355        V360   1.855       .  S
O355        C364   1.257       .  A
O356        V360   1.855       .  S
O356        C363   1.258       .  A
O357        V360   1.855       .  S
O357        C362   1.258       .  A
O358        V360   1.853       .  S
O358        C361   1.258       .  A
V359        V360   2.063       .  T
C365        C366   1.421       .  A
C365        C370   1.421       .  A
C365        C898   1.493       .  S
C366        C367   1.400       .  A
C366        H371   1.084       .  S
C367        C368   1.399       .  A
C367        C395   1.492       .  S
C368        C369   1.399       .  A
C368        H372   1.081       .  S
C369        C370   1.399       .  A
C369        C625   1.492       .  S
C370        H373   1.084       .  S
C374        C375   1.421       .  A
C374        C379   1.421       .  A
C374        C895   1.492       .  S
C375        C376   1.399       .  A
C375        H380   1.084       .  S
C376        C377   1.400       .  A
C376        C640   1.492       .  S
C377        C378   1.399       .  A
C377        H381   1.081       .  S
C378        C379   1.400       .  A
C378        C409   1.493       .  S
C379        H382   1.084       .  S
O383        V391   1.855       .  S
O383        C393   1.258       .  A
O384        V391   1.854       .  S
O384        C394   1.258       .  A
O385        V391   1.855   1_545  S
O385        C395   1.258       .  A
O386        V391   1.856       .  S
O386        C396   1.258       .  A
O387        V392   1.946       .  S
O387        C396   1.274       .  A
O388        V392   1.946   1_545  S
O388        C395   1.274       .  A
O389        V392   1.948       .  S
O389        C394   1.275       .  A
O390        V392   1.948       .  S
O390        C393   1.275       .  A
V391        V392   2.061       .  T
C393        C486   1.494       .  S
C394        C704   1.493       .  S
O397        V405   1.946       .  S
O397        C407   1.274       .  A
O398        V405   1.946       .  S
O398        C408   1.275       .  A
O399        V405   1.946       .  S
O399        C409   1.274       .  A
O400        V405   1.945   1_556  S
O400        C410   1.274       .  A
O401        V406   1.855   1_556  S
O401        C410   1.258       .  A
O402        V406   1.856       .  S
O402        C409   1.258       .  A
O403        V406   1.858       .  S
O403        C408   1.258       .  A
O404        V406   1.854       .  S
O404        C407   1.258       .  A
V405        V406   2.060       .  T
C407        C468   1.492       .  S
C408        C684   1.492       .  S
C411        C412   1.420       .  A
C411        C416   1.420       .  A
C411        C881   1.491       .  S
C412        C413   1.400       .  A
C412        H417   1.083       .  S
C413        C414   1.401       .  A
C413        C611   1.493       .  S
C414        C415   1.401       .  A
C414        H418   1.081       .  S
C415        C416   1.400       .  A
C415        C439   1.493       .  S
C416        H419   1.084       .  S
C420        C421   1.420       .  A
C420        C425   1.420       .  A
C420        C884   1.491       .  S
C421        C422   1.400       .  A
C421        H426   1.084       .  S
C422        C423   1.401       .  A
C422        C623   1.493       .  S
C423        C424   1.401       .  A
C423        H427   1.081       .  S
C424        C425   1.400       .  A
C424        C456   1.493       .  S
C425        H428   1.083       .  S
O429        V437   1.947   1_455  S
O429        C439   1.275       .  A
O430        V437   1.947       .  S
O430        C440   1.274       .  A
O431        V437   1.947   1_455  S
O431        C441   1.274   1_455  A
O432        V437   1.948       .  S
O432        C442   1.275   1_655  A
O433        V438   1.854   1_455  S
O433        C442   1.258       .  A
O434        V438   1.854       .  S
O434        C441   1.258       .  A
O435        V438   1.855       .  S
O435        C440   1.258       .  A
O436        V438   1.857   1_455  S
O436        C439   1.258       .  A
V437        V438   2.063       .  T
C440        C734   1.492       .  S
C441        C504   1.492       .  S
O443        V451   1.947       .  S
O443        C453   1.275       .  A
O444        V451   1.947       .  S
O444        C454   1.275       .  A
O445        V451   1.947       .  S
O445        C455   1.274       .  A
O446        V451   1.947   1_545  S
O446        C456   1.275       .  A
O447        V452   1.857   1_545  S
O447        C456   1.258       .  A
O448        V452   1.856       .  S
O448        C455   1.258       .  A
O449        V452   1.856       .  S
O449        C454   1.258       .  A
O450        V452   1.856       .  S
O450        C453   1.258       .  A
V451        V452   2.061       .  T
C454        C488   1.494       .  S
C457        C458   1.420       .  A
C457        C462   1.421       .  A
C457        C867   1.492       .  S
C458        C459   1.399       .  A
C458        H463   1.084       .  S
C459        C460   1.399       .  A
C459        C549   1.491       .  S
C460        C461   1.400       .  A
C460        H464   1.081       .  S
C461        C462   1.400       .  A
C461        C535   1.493       .  S
C462        H465   1.084       .  S
C466        C467   1.421       .  A
C466        C471   1.421       .  A
C466        C870   1.492       .  S
C467        C468   1.400       .  A
C467        H472   1.084       .  S
C468        C469   1.399       .  A
C469        C470   1.398       .  A
C469        H473   1.081       .  S
C470        C471   1.399       .  A
C470        C595   1.491       .  S
C471        H474   1.084       .  S
C475        C476   1.420       .  A
C475        C480   1.422       .  A
C475        C853   1.491       .  S
C476        C477   1.399       .  A
C476        H481   1.084       .  S
C477        C478   1.400       .  A
C477        C521   1.492       .  S
C478        C479   1.401       .  A
C478        H482   1.081       .  S
C479        C480   1.402       .  A
C479        C538   1.496       .  S
C480        H483   1.084       .  S
C484        C485   1.421       .  A
C484        C489   1.421       .  A
C484        C856   1.493       .  S
C485        C486   1.400       .  A
C485        H490   1.084       .  S
C486        C487   1.401       .  A
C487        C488   1.400       .  A
C487        H491   1.081       .  S
C488        C489   1.400       .  A
C489        H492   1.084       .  S
C493        C494   1.418       .  A
C493        C498   1.417       .  A
C493        C839   1.483       .  S
C494        C495   1.401       .  A
C494        H499   1.084       .  S
C495        C496   1.401       .  A
C495        C523   1.494   1_655  S
C496        C497   1.400       .  A
C496        H500   1.081   1_655  S
C497        C498   1.400       .  A
C497        C551   1.492       .  S
C498        H501   1.084       .  S
C502        C503   1.417       .  A
C502        C507   1.419       .  A
C502        C842   1.482       .  S
C503        C504   1.399       .  A
C503        H508   1.084       .  S
C504        C505   1.400   1_655  A
C505        C506   1.402   1_455  A
C505        H509   1.081       .  S
C506        C507   1.402       .  A
C506        C584   1.496       .  S
C507        H510   1.083       .  S
O511        V519   1.854   1_455  S
O511        C521   1.257       .  A
O512        V519   1.855       .  S
O512        C522   1.257       .  A
O513        V519   1.855   1_445  S
O513        C523   1.258       .  A
O514        V519   1.853       .  S
O514        C524   1.258       .  A
O515        V520   1.946       .  S
O515        C524   1.274   1_455  A
O516        V520   1.947   1_645  S
O516        C523   1.274   1_655  A
O517        V520   1.948   1_655  S
O517        C522   1.275       .  A
O518        V520   1.947       .  S
O518        C521   1.275       .  A
V519        V520   2.066   1_655  T
C522        C693   1.493       .  S
O525        V533   1.946   1_545  S
O525        C535   1.275       .  A
O526        V533   1.947       .  S
O526        C536   1.274       .  A
O527        V533   1.946   1_556  S
O527        C537   1.274       .  A
O528        V533   1.949       .  S
O528        C538   1.275       .  A
O529        V534   1.856       .  S
O529        C538   1.258       .  A
O530        V534   1.854   1_556  S
O530        C537   1.257       .  A
O531        V534   1.855       .  S
O531        C536   1.258       .  A
O532        V534   1.856   1_545  S
O532        C535   1.258       .  A
V533        V534   2.063       .  T
O539        V547   1.945   1_455  S
O539        C549   1.274       .  A
O540        V547   1.945       .  S
O540        C550   1.274       .  A
O541        V547   1.946   1_455  S
O541        C551   1.274   1_455  A
O542        V547   1.947   1_556  S
O542        C552   1.275   1_655  A
O543        V548   1.857   1_456  S
O543        C552   1.258       .  A
O544        V548   1.856       .  S
O544        C551   1.258       .  A
O545        V548   1.857       .  S
O545        C550   1.258       .  A
O546        V548   1.857   1_455  S
O546        C549   1.258       .  A
V547        V548   2.061       .  T
C550        C675   1.491       .  S
C553        C554   1.418       .  A
C553        C558   1.418       .  A
C553        C825   1.483       .  S
C554        C555   1.400       .  A
C554        H559   1.084       .  S
C555        C556   1.401       .  A
C555        C609   1.493       .  S
C556        C557   1.401       .  A
C556        H560   1.081       .  S
C557        C558   1.400       .  A
C557        C581   1.493       .  S
C558        H561   1.084       .  S
C562        C563   1.418       .  A
C562        C567   1.418       .  A
C562        C828   1.482       .  S
C563        C564   1.401       .  A
C563        H568   1.084       .  S
C564        C565   1.400       .  A
C564        C637   1.493       .  S
C565        C566   1.400       .  A
C565        H569   1.081       .  S
C566        C567   1.400       .  A
C566        C598   1.492       .  S
C567        H570   1.084       .  S
O571        V579   1.946   1_455  S
O571        C581   1.274       .  A
O572        V579   1.947       .  S
O572        C582   1.274       .  A
O573        V579   1.946   1_455  S
O573        C583   1.274   1_455  A
O574        V579   1.949       .  S
O574        C584   1.275       .  A
O575        V580   1.852   1_455  S
O575        C584   1.257   1_455  A
O576        V580   1.853       .  S
O576        C583   1.257       .  A
O577        V580   1.851       .  S
O577        C582   1.257       .  A
O578        V580   1.854   1_455  S
O578        C581   1.258       .  A
V579        V580   2.070       .  T
C582        C652   1.492       .  S
O585        V593   1.945       .  S
O585        C595   1.274       .  A
O586        V593   1.946       .  S
O586        C596   1.275       .  A
O587        V593   1.947   1_556  S
O587        C597   1.275       .  A
O588        V593   1.946       .  S
O588        C598   1.274       .  A
O589        V594   1.854       .  S
O589        C598   1.258       .  A
O590        V594   1.859   1_556  S
O590        C597   1.258       .  A
O591        V594   1.856       .  S
O591        C596   1.258       .  A
O592        V594   1.855       .  S
O592        C595   1.258       .  A
V593        V594   2.061       .  T
O599        V607   1.947       .  S
O599        C609   1.275       .  A
O600        V607   1.946       .  S
O600        C610   1.275       .  A
O601        V607   1.947       .  S
O601        C611   1.275       .  A
O602        V607   1.946       .  S
O602        C612   1.275       .  A
O603        V608   1.856       .  S
O603        C612   1.258       .  A
O604        V608   1.858       .  S
O604        C611   1.258       .  A
O605        V608   1.857       .  S
O605        C610   1.258       .  A
O606        V608   1.856       .  S
O606        C609   1.258       .  A
V607        V608   2.060       .  T
O613        V621   1.946       .  S
O613        C623   1.275       .  A
O614        V621   1.945       .  S
O614        C624   1.274       .  A
O615        V621   1.946       .  S
O615        C625   1.274       .  A
O616        V621   1.945       .  S
O616        C626   1.274       .  A
O617        V622   1.855       .  S
O617        C626   1.258       .  A
O618        V622   1.853       .  S
O618        C625   1.258       .  A
O619        V622   1.854       .  S
O619        C624   1.258       .  A
O620        V622   1.858       .  S
O620        C623   1.258       .  A
V621        V622   2.063       .  T
C624        C725   1.490       .  S
O627        V635   1.946       .  S
O627        C637   1.274       .  A
O628        V635   1.945       .  S
O628        C638   1.274       .  A
O629        V635   1.946       .  S
O629        C639   1.275       .  A
O630        V635   1.947       .  S
O630        C640   1.275       .  A
O631        V636   1.854       .  S
O631        C640   1.257       .  A
O632        V636   1.858       .  S
O632        C639   1.258       .  A
O633        V636   1.856       .  S
O633        C638   1.258       .  A
O634        V636   1.856       .  S
O634        C637   1.258       .  A
V635        V636   2.061       .  T
C638        C643   1.492       .  S
C641        C642   1.421       .  A
C641        C646   1.420       .  A
C641        C811   1.493       .  S
C642        C643   1.400       .  A
C642        H647   1.084       .  S
C643        C644   1.399       .  A
C644        C645   1.399       .  A
C644        H648   1.081       .  S
C645        C646   1.399       .  A
C645        C672   1.491       .  S
C646        H649   1.084       .  S
C650        C651   1.422       .  A
C650        C655   1.421       .  A
C650        C814   1.491       .  S
C651        C652   1.400       .  A
C651        H656   1.083       .  S
C652        C653   1.398       .  A
C653        C654   1.398       .  A
C653        H657   1.082       .  S
C654        C655   1.399       .  A
C654        C766   1.490       .  S
C655        H658   1.084       .  S
O659        V667   1.857       .  S
O659        C669   1.258       .  A
O660        V667   1.854       .  S
O660        C670   1.258       .  A
O661        V667   1.855   1_556  S
O661        C671   1.258       .  A
O662        V667   1.854       .  S
O662        C672   1.258       .  A
O663        V668   1.946       .  S
O663        C672   1.274       .  A
O664        V668   1.946   1_556  S
O664        C671   1.274       .  A
O665        V668   1.947       .  S
O665        C670   1.274       .  A
O666        V668   1.946       .  S
O666        C669   1.275       .  A
V667        V668   2.062       .  T
C669        C686   1.492       .  S
C673        C674   1.418       .  A
C673        C678   1.419       .  A
C673        C797   1.487       .  S
C674        C675   1.399       .  A
C674        H679   1.084       .  S
C675        C676   1.400       .  A
C676        C677   1.401       .  A
C676        H680   1.081       .  S
C677        C678   1.400       .  A
C677        C719   1.492       .  S
C678        H681   1.084       .  S
C682        C683   1.418       .  A
C682        C687   1.418       .  A
C682        C800   1.487       .  S
C683        C684   1.400       .  A
C683        H688   1.084       .  S
C684        C685   1.402       .  A
C685        C686   1.401       .  A
C685        H689   1.081       .  S
C686        C687   1.399       .  A
C687        H690   1.084       .  S
C691        C692   1.418       .  A
C691        C696   1.418       .  A
C691        C783   1.484       .  S
C692        C693   1.400       .  A
C692        H697   1.084       .  S
C693        C694   1.402       .  A
C694        C695   1.401       .  A
C694        H698   1.081       .  S
C695        C696   1.400       .  A
C695        C721   1.493       .  S
C696        H699   1.083       .  S
C700        C701   1.419       .  A
C700        C705   1.418       .  A
C700        C786   1.483       .  S
C701        C702   1.400       .  A
C701        H706   1.084       .  S
C702        C703   1.401       .  A
C702        C752   1.494       .  S
C703        C704   1.401       .  A
C703        H707   1.081       .  S
C704        C705   1.399       .  A
C705        H708   1.084       .  S
O709        V717   1.946   1_545  S
O709        C719   1.275       .  A
O710        V717   1.947       .  S
O710        C720   1.275       .  A
O711        V717   1.947       .  S
O711        C721   1.275       .  A
O712        V717   1.947   1_556  S
O712        C722   1.275       .  A
O713        V718   1.856   1_556  S
O713        C722   1.258       .  A
O714        V718   1.857       .  S
O714        C721   1.258       .  A
O715        V718   1.857       .  S
O715        C720   1.258       .  A
O716        V718   1.856   1_545  S
O716        C719   1.258       .  A
V717        V718   2.060       .  T
C723        C724   1.419       .  A
C723        C728   1.421       .  A
C723        C769   1.489       .  S
C724        C725   1.398       .  A
C724        H729   1.084       .  S
C725        C726   1.399       .  A
C726        C727   1.400       .  A
C726        H730   1.081       .  S
C727        C728   1.401       .  A
C727        C754   1.494       .  S
C728        H731   1.084       .  S
C732        C733   1.421       .  A
C732        C737   1.422       .  A
C732        C772   1.491       .  S
C733        C734   1.399       .  A
C733        H738   1.084       .  S
C734        C735   1.399       .  A
C735        C736   1.400       .  A
C735        H739   1.081       .  S
C736        C737   1.400       .  A
C736        C767   1.494       .  S
C737        H740   1.083       .  S
O741        V749   1.855       .  S
O741        C751   1.257       .  A
O742        V749   1.855       .  S
O742        C752   1.258       .  A
O743        V749   1.855       .  S
O743        C753   1.258       .  A
O744        V749   1.856   1_545  S
O744        C754   1.258       .  A
O745        V750   1.947   1_545  S
O745        C754   1.274       .  A
O746        V750   1.946       .  S
O746        C753   1.274       .  A
O747        V750   1.948       .  S
O747        C752   1.275       .  A
O748        V750   1.947       .  S
O748        C751   1.275       .  A
V749        V750   2.061       .  T
O755        V763   1.946       .  S
O755        C765   1.274       .  A
O756        V763   1.945       .  S
O756        C766   1.273       .  A
O757        V763   1.949       .  S
O757        C767   1.275       .  A
O758        V763   1.947       .  S
O758        C768   1.274       .  A
O759        V764   1.853       .  S
O759        C768   1.257       .  A
O760        V764   1.851       .  S
O760        C767   1.257       .  A
O761        V764   1.853       .  S
O761        C766   1.258       .  A
O762        V764   1.854       .  S
O762        C765   1.257       .  A
V763        V764   2.068       .  T
C769        C770   1.413       .  A
C769        C774   1.414       .  A
C770        C771   1.411       .  A
C770        C775   1.452       .  S
C771        C772   1.415       .  A
C771        C778   1.452       .  S
C772        C773   1.414       .  A
C773        C774   1.410       .  A
C773        C776   1.452       .  S
C774        C777   1.452       .  S
C775        N782   1.157       .  T
C776        N781   1.157       .  T
C777        N779   1.157       .  T
C778        N780   1.157       .  T
C783        C784   1.412   1_565  A
C783        C788   1.413       .  A
C784        C785   1.410       .  A
C784        C789   1.451       .  S
C785        C786   1.412   1_545  A
C785        C792   1.451       .  S
C786        C787   1.412       .  A
C787        C788   1.410       .  A
C787        C790   1.451       .  S
C788        C791   1.451       .  S
C789        N796   1.157       .  T
C790        N795   1.157       .  T
C791        N793   1.157       .  T
C792        N794   1.157       .  T
C797        C798   1.413       .  A
C797        C802   1.413   1_554  A
C798        C799   1.410       .  A
C798        C803   1.452       .  S
C799        C800   1.414       .  A
C799        C806   1.452       .  S
C800        C801   1.414   1_554  A
C801        C802   1.410       .  A
C801        C804   1.451       .  S
C802        C805   1.451       .  S
C803        N810   1.157       .  T
C804        N809   1.157       .  T
C805        N807   1.157       .  T
C806        N808   1.157       .  T
C811        C812   1.416       .  A
C811        C816   1.416       .  A
C812        C813   1.410       .  A
C812        C817   1.452       .  S
C813        C814   1.415       .  A
C813        C820   1.452       .  S
C814        C815   1.414       .  A
C815        C816   1.411       .  A
C815        C818   1.452       .  S
C816        C819   1.452       .  S
C817        N824   1.157       .  T
C818        N823   1.157       .  T
C819        N821   1.157       .  T
C820        N822   1.157       .  T
C825        C826   1.412       .  A
C825        C830   1.412       .  A
C826        C827   1.410       .  A
C826        C831   1.450       .  S
C827        C828   1.411       .  A
C827        C834   1.451       .  S
C828        C829   1.412       .  A
C829        C830   1.410       .  A
C829        C832   1.451       .  S
C830        C833   1.451       .  S
C831        N838   1.157       .  T
C832        N837   1.157       .  T
C833        N835   1.157       .  T
C834        N836   1.157       .  T
C839        C840   1.412       .  A
C839        C844   1.411   1_655  A
C840        C841   1.411       .  A
C840        C845   1.450       .  S
C841        C842   1.411       .  A
C841        C848   1.450       .  S
C842        C843   1.411   1_655  A
C843        C844   1.409       .  A
C843        C846   1.451       .  S
C844        C847   1.451       .  S
C845        N852   1.157       .  T
C846        N851   1.157       .  T
C847        N849   1.157       .  T
C848        N850   1.157       .  T
C853        C854   1.415   1_565  A
C853        C858   1.414       .  A
C854        C855   1.411       .  A
C854        C859   1.452       .  S
C855        C856   1.415   1_545  A
C855        C862   1.452       .  S
C856        C857   1.415       .  A
C857        C858   1.412       .  A
C857        C860   1.452       .  S
C858        C861   1.451       .  S
C859        N866   1.157       .  T
C860        N865   1.157       .  T
C861        N863   1.157       .  T
C862        N864   1.157       .  T
C867        C868   1.415       .  A
C867        C872   1.415   1_554  A
C868        C869   1.411       .  A
C868        C873   1.452       .  S
C869        C870   1.415       .  A
C869        C876   1.452       .  S
C870        C871   1.415   1_554  A
C871        C872   1.410       .  A
C871        C874   1.452       .  S
C872        C875   1.452       .  S
C873        N880   1.157       .  T
C874        N879   1.157       .  T
C875        N877   1.157       .  T
C876        N878   1.157       .  T
C881        C882   1.414       .  A
C881        C886   1.414       .  A
C882        C883   1.411       .  A
C882        C887   1.452       .  S
C883        C884   1.414       .  A
C883        C890   1.452       .  S
C884        C885   1.414       .  A
C885        C886   1.411       .  A
C885        C888   1.452       .  S
C886        C889   1.452       .  S
C887        N894   1.157       .  T
C888        N893   1.157       .  T
C889        N891   1.157       .  T
C890        N892   1.157       .  T
C895        C896   1.415       .  A
C895        C900   1.414       .  A
C896        C897   1.410       .  A
C896        C901   1.452       .  S
C897        C898   1.415       .  A
C897        C904   1.452       .  S
C898        C899   1.416       .  A
C899        C900   1.411       .  A
C899        C902   1.452       .  S
C900        C903   1.452       .  S
C901        N908   1.157       .  T
C902        N907   1.157       .  T
C903        N905   1.157       .  T
C904        N906   1.157       .  T
C909        C910   1.414       .  A
C909        C914   1.414       .  A
C910        C911   1.411       .  A
C910        C915   1.452       .  S
C911        C912   1.416       .  A
C911        C918   1.452       .  S
C912        C913   1.415       .  A
C913        C914   1.411       .  A
C913        C916   1.452       .  S
C914        C917   1.452       .  S
C915        N922   1.157       .  T
C916        N921   1.157       .  T
C917        N919   1.157       .  T
C918        N920   1.157       .  T
C923        C924   1.415       .  A
C923        C928   1.415   1_655  A
C924        C925   1.412       .  A
C924        C929   1.451       .  S
C925        C926   1.414       .  A
C925        C932   1.451       .  S
C926        C927   1.415   1_655  A
C927        C928   1.409       .  A
C927        C930   1.452       .  S
C928        C931   1.452       .  S
C929        N936   1.157       .  T
C930        N935   1.157       .  T
C931        N933   1.157       .  T
C932        N934   1.157       .  T
C937        C938   1.415       .  A
C937        C942   1.415   1_554  A
C938        C939   1.411       .  A
C938        C943   1.452       .  S
C939        C940   1.417       .  A
C939        C946   1.452       .  S
C940        C941   1.416   1_554  A
C941        C942   1.411       .  A
C941        C944   1.452       .  S
C942        C945   1.452       .  S
C943        N950   1.157       .  T
C944        N949   1.157       .  T
C945        N947   1.157       .  T
C946        N948   1.157       .  T
C951        C952   1.416       .  A
C951        C956   1.416       .  A
C952        C953   1.411       .  A
C952        C957   1.452       .  S
C953        C954   1.416       .  A
C953        C960   1.452       .  S
C954        C955   1.416       .  A
C955        C956   1.411       .  A
C955        C958   1.452       .  S
C956        C959   1.452       .  S
C957        N964   1.157       .  T
C958        N963   1.157       .  T
C959        N961   1.157       .  T
C960        N962   1.157       .  T
C965        C966   1.416       .  A
C965        C970   1.415       .  A
C966        C967   1.411       .  A
C966        C971   1.452       .  S
C967        C968   1.416       .  A
C967        C974   1.452       .  S
C968        C969   1.416       .  A
C969        C970   1.411       .  A
C969        C972   1.452       .  S
C970        C973   1.452       .  S
C971        N978   1.157       .  T
C972        N977   1.157       .  T
C973        N975   1.157       .  T
C974        N976   1.157       .  T
C979        C980   1.413   1_565  A
C979        C984   1.413       .  A
C980        C981   1.410       .  A
C980        C985   1.451       .  S
C981        C982   1.413   1_545  A
C981        C988   1.451       .  S
C982        C983   1.413       .  A
C983        C984   1.410       .  A
C983        C986   1.451       .  S
C984        C987   1.451       .  S
C985        N992   1.157       .  T
C986        N991   1.157       .  T
C987        N989   1.157       .  T
C988        N990   1.157       .  T
C993        C994   1.415       .  A
C993        C998   1.414   1_655  A
C994        C995   1.411       .  A
C994        C999   1.451       .  S
C995        C996   1.413       .  A
C995       C1002   1.451       .  S
C996        C997   1.413   1_655  A
C997        C998   1.410       .  A
C997       C1000   1.452       .  S
C998       C1001   1.452       .  S
C999       N1006   1.157       .  T
C1000      N1005   1.157       .  T
C1001      N1003   1.157       .  T
C1002      N1004   1.157       .  T
C1007      C1008   1.414       .  A
C1007      C1012   1.414       .  A
C1008      C1009   1.411       .  A
C1008      C1013   1.452       .  S
C1009      C1010   1.417       .  A
C1009      C1016   1.452       .  S
C1010      C1011   1.416       .  A
C1011      C1012   1.410       .  A
C1011      C1014   1.452       .  S
C1012      C1015   1.452       .  S
C1013      N1020   1.157       .  T
C1014      N1019   1.157       .  T
C1015      N1017   1.157       .  T
C1016      N1018   1.157       .  T
C1021      C1022   1.416       .  A
C1021      C1026   1.415   1_655  A
C1022      C1023   1.412       .  A
C1022      C1027   1.452       .  S
C1023      C1024   1.415       .  A
C1023      C1030   1.452       .  S
C1024      C1025   1.415   1_655  A
C1025      C1026   1.410       .  A
C1025      C1028   1.452       .  S
C1026      C1029   1.452       .  S
C1027      N1034   1.157       .  T
C1028      N1033   1.157       .  T
C1029      N1031   1.157       .  T
C1030      N1032   1.157       .  T
C1035      C1036   1.414       .  A
C1035      C1040   1.415   1_565  A
C1036      C1037   1.411       .  A
C1036      C1041   1.452       .  S
C1037      C1038   1.415       .  A
C1037      C1044   1.452       .  S
C1038      C1039   1.414   1_565  A
C1039      C1040   1.410       .  A
C1039      C1042   1.452       .  S
C1040      C1043   1.452       .  S
C1041      N1048   1.157       .  T
C1042      N1047   1.157       .  T
C1043      N1045   1.157       .  T
C1044      N1046   1.157       .  T
C1049      C1050   1.414       .  A
C1049      C1054   1.415   1_554  A
C1050      C1051   1.412       .  A
C1050      C1055   1.452       .  S
C1051      C1052   1.416       .  A
C1051      C1058   1.452       .  S
C1052      C1053   1.415   1_554  A
C1053      C1054   1.410       .  A
C1053      C1056   1.452       .  S
C1054      C1057   1.452       .  S
C1055      N1062   1.157       .  T
C1056      N1061   1.157       .  T
C1057      N1059   1.157       .  T
C1058      N1060   1.157       .  T
C1063      C1064   1.411       .  A
C1063      C1068   1.411       .  A
C1064      C1065   1.410       .  A
C1064      C1069   1.451       .  S
C1065      C1066   1.411       .  A
C1065      C1072   1.451       .  S
C1066      C1067   1.411       .  A
C1067      C1068   1.409       .  A
C1067      C1070   1.451       .  S
C1068      C1071   1.451       .  S
C1069      N1076   1.157       .  T
C1070      N1075   1.157       .  T
C1071      N1073   1.157       .  T
C1072      N1074   1.157       .  T
C1077      C1078   1.414       .  A
C1077      C1082   1.413       .  A
C1078      C1079   1.410       .  A
C1078      C1083   1.452       .  S
C1079      C1080   1.414       .  A
C1079      C1086   1.452       .  S
C1080      C1081   1.414       .  A
C1081      C1082   1.410       .  A
C1081      C1084   1.451       .  S
C1082      C1085   1.451       .  S
C1083      N1090   1.157       .  T
C1084      N1089   1.157       .  T
C1085      N1087   1.157       .  T
C1086      N1088   1.157       .  T
C1091      C1092   1.415       .  A
C1091      C1096   1.415       .  A
C1092      C1093   1.411       .  A
C1092      C1097   1.451       .  S
C1093      C1094   1.413       .  A
C1093      C1100   1.451       .  S
C1094      C1095   1.414       .  A
C1095      C1096   1.409       .  A
C1095      C1098   1.452       .  S
C1096      C1099   1.452       .  S
C1097      N1104   1.157       .  T
C1098      N1103   1.157       .  T
C1099      N1101   1.157       .  T
C1100      N1102   1.157       .  T
