geometry optimzed in LAMMPS
_audit_creation_date              2020-12-01 
_audit_creation_method            'lammps2cif' 
_symmetry_space_group_name_H-M    'P1' 
_symmetry_Int_Tables_number       1 
_symmetry_cell_setting            triclinic 
loop_ 
_symmetry_equiv_pos_as_xyz 
  x,y,z 
_cell_length_a                    47.95758534 
_cell_length_b                    47.95842679250627 
_cell_length_c                    50.666774428442835 
_cell_angle_alpha                 90.00251267197726 
_cell_angle_beta                  90.00321410546232 
_cell_angle_gamma                 90.00058575984608 
loop_ 
_atom_site_label 
_atom_site_type_symbol 
_atom_site_fract_x 
_atom_site_fract_y 
_atom_site_fract_z 
_atom_site_charge 
C1          C  0.14555077  0.10970119  0.76533608     0.03800
C2          C  0.14562319  0.13922650  0.76472154     0.03700
C3          C  0.12346775  0.15334724  0.75283579    -0.16800
C4          C  0.10131041  0.13880729  0.74136116     0.03800
C5          C  0.10119280  0.10923299  0.74203453     0.03700
C6          C  0.12327846  0.09513310  0.75411208    -0.16800
H7          H  0.12332546  0.07250688  0.75445345     0.05800
H8          H  0.12362904  0.17596791  0.75225276     0.05800
C9          C  0.39561688  0.10966897  0.73430670     0.03800
C10         C  0.39554693  0.13919263  0.73366515     0.03700
C11         C  0.37327995  0.15377430  0.74487658    -0.16800
C12         C  0.35119223  0.13968959  0.75696050     0.03800
C13         C  0.35129240  0.11011632  0.75763775     0.03700
C14         C  0.37344924  0.09556094  0.74618266    -0.16800
H15         H  0.37360271  0.07294051  0.74677819     0.05800
H16         H  0.37333439  0.17640031  0.74452340     0.05800
N17         N  0.44462062  0.18964538  0.70648151    -0.25800
N18         N  0.45877471  0.17891845  0.72632998    -0.33700
C19         C  0.44413447  0.15849747  0.73769188     0.02500
C20         C  0.41943796  0.15561873  0.72425419     0.08600
C21         C  0.41992915  0.17623331  0.70490890    -0.04500
H22         H  0.45064543  0.14755044  0.75525084     0.09200
H23         H  0.40336729  0.18147828  0.69128806     0.10400
Cu24       Cu  0.99852164  0.18941875  0.73553885     0.44200
Cu25       Cu  0.46181331  0.22246944  0.68481954     0.42000
Cu26       Cu  0.03980394  0.22338032  0.68870404     0.43900
N27         N  0.03899016  0.17902061  0.72969880    -0.33200
N28         N  0.05492622  0.19006011  0.71126698    -0.27500
C29         C  0.07958059  0.17647706  0.71146439    -0.03600
C30         C  0.07825682  0.15545832  0.73042451     0.08700
C31         C  0.05245389  0.15828460  0.74186859     0.02500
H32         H  0.09732723  0.18185027  0.69930378     0.10100
H33         H  0.04432584  0.14712217  0.75867530     0.09200
N34         N  0.01492917  0.25607892  0.67443309    -0.34600
N35         N  0.48729208  0.25563440  0.67300454    -0.26800
C36         C  0.47827250  0.28061145  0.66431017    -0.02100
C37         C  0.00114340  0.29754362  0.66020957     0.06500
C38         C  0.02402165  0.28139765  0.66666142     0.04600
H39         H  0.45659684  0.28611164  0.66147378     0.09700
H40         H  0.04568844  0.28765204  0.66602059     0.08600
N41         N  0.44451904  0.05842786  0.70811483    -0.25800
N42         N  0.45848429  0.06902829  0.72816105    -0.33700
C43         C  0.44387102  0.08964482  0.73927217     0.02500
C44         C  0.41946820  0.09284375  0.72540689     0.08600
C45         C  0.42004146  0.07217475  0.70612285    -0.04500
H46         H  0.45023493  0.10062752  0.75686805     0.09200
H47         H  0.40368036  0.06715619  0.69221110     0.10400
Cu48       Cu  0.99820275  0.05846641  0.73772914     0.44200
Cu49       Cu  0.46151708  0.02540496  0.68648620     0.42000
Cu50       Cu  0.03912805  0.02436939  0.69033796     0.43900
N51         N  0.03879561  0.06856598  0.73165863    -0.33200
N52         N  0.05445647  0.05756141  0.71298239    -0.27500
C53         C  0.07908222  0.07120397  0.71278477    -0.03600
C54         C  0.07805080  0.09221798  0.73174795     0.08700
C55         C  0.05246671  0.08931432  0.74363729     0.02500
H56         H  0.09657594  0.06595616  0.70025316     0.10100
H57         H  0.04457720  0.10058528  0.76049132     0.09200
N58         N  0.01442544  0.99185444  0.67541783    -0.34600
N59         N  0.48679500  0.99230264  0.67399740    -0.26800
C60         C  0.47780955  0.46750345  0.66478413    -0.02100
C61         C  0.00071787  0.45068426  0.66032407     0.06500
C62         C  0.02356138  0.46672989  0.66713146     0.04600
H63         H  0.45613983  0.46202270  0.66187286     0.09700
H64         H  0.04523627  0.46051319  0.66641912     0.08600
N65         N  0.19450148  0.19053498  0.79085380    -0.25800
N66         N  0.20850205  0.17983294  0.77088076    -0.33700
C67         C  0.19391278  0.15916452  0.75982863     0.02500
C68         C  0.16947347  0.15604373  0.77364537     0.08600
C69         C  0.17001111  0.17680743  0.79284470    -0.04500
H70         H  0.20030935  0.14810965  0.74228545     0.09200
H71         H  0.15361403  0.18190527  0.80669058     0.10400
Cu72       Cu  0.24819816  0.19039007  0.76128481     0.44200
Cu73       Cu  0.21150063  0.22364768  0.81238814     0.42000
Cu74       Cu  0.28914605  0.22468434  0.80849644     0.43900
N75         N  0.28879039  0.18033175  0.76732968    -0.33200
N76         N  0.30448501  0.19143465  0.78592849    -0.27500
C77         C  0.32912544  0.17781903  0.78612126    -0.03600
C78         C  0.32806282  0.15671917  0.76724268     0.08700
C79         C  0.30244392  0.15953998  0.75540571     0.02500
H80         H  0.34664704  0.18313792  0.79859297     0.10100
H81         H  0.29451820  0.14818761  0.73861591     0.09200
N82         N  0.26444325  0.25717656  0.82347115    -0.34600
N83         N  0.23681250  0.25673296  0.82490919    -0.26800
C84         C  0.22784809  0.28151190  0.83419456    -0.02100
C85         C  0.25076845  0.29831229  0.83868317     0.06500
C86         C  0.27359666  0.28227499  0.83181502     0.04600
H87         H  0.20618382  0.28699225  0.83713917     0.09700
H88         H  0.29527516  0.28847928  0.83252963     0.08600
N89         N  0.19465420  0.05932344  0.79262410    -0.25800
N90         N  0.20876566  0.06993352  0.77269179    -0.33700
C91         C  0.19410086  0.09029521  0.76125734     0.02500
C92         C  0.16944180  0.09326393  0.77473907     0.08600
C93         C  0.16997311  0.07275790  0.79418540    -0.04500
H94         H  0.20057946  0.10116263  0.74364250     0.09200
H95         H  0.15344965  0.06760746  0.80787837     0.10400
Cu96       Cu  0.24852608  0.05942013  0.76350410     0.44200
Cu97       Cu  0.21187614  0.02660460  0.81441745     0.42000
Cu98       Cu  0.28982432  0.02571865  0.81054093     0.43900
N99         N  0.28899530  0.06987200  0.76933911    -0.33200
N100        N  0.30491050  0.05895311  0.78785466    -0.27500
C101        C  0.32954584  0.07256868  0.78764603    -0.03600
C102        C  0.32823573  0.09348238  0.76858566     0.08700
C103        C  0.30246300  0.09055880  0.75709576     0.02500
H104        H  0.34727195  0.06728562  0.79987045     0.10100
H105        H  0.29435692  0.10163137  0.74022394     0.09200
N106        N  0.26498680  0.99299976  0.82481084    -0.34600
N107        N  0.23735074  0.99343290  0.82623861    -0.26800
C108        C  0.22834037  0.46843239  0.83488287    -0.02100
C109        C  0.25121794  0.45149662  0.83894932     0.06500
C110        C  0.27408974  0.46766722  0.83253180     0.04600
H111        H  0.20666616  0.46291328  0.83769401     0.09700
H112        H  0.29575812  0.46141538  0.83314701     0.08600
C113        C  0.99998347  0.37403858  0.62367921    -0.01000
C114        C  0.23507324  0.03281393  0.50309858     0.03800
C115        C  0.26469661  0.03280628  0.50282837     0.03700
C116        C  0.27910244  0.51054058  0.51432205    -0.16800
C117        C  0.26485520  0.48790751  0.52523823     0.03800
C118        C  0.23533255  0.48791898  0.52550259     0.03700
C119        C  0.22089109  0.51057715  0.51487198    -0.16800
H120        H  0.19826426  0.51027708  0.51464388     0.05800
H121        H  0.30172047  0.51021760  0.51368774     0.05800
C122        C  0.23544209  0.28281192  0.49726559     0.03800
C123        C  0.26506418  0.28283516  0.49754033     0.03700
C124        C  0.27949672  0.26053990  0.48611474    -0.16800
C125        C  0.26526555  0.23788928  0.47519668     0.03800
C126        C  0.23574191  0.23791409  0.47486331     0.03700
C127        C  0.22128735  0.26057481  0.48546912    -0.16800
H128        H  0.19866032  0.26026892  0.48567466     0.05800
H129        H  0.30211385  0.26022699  0.48677266     0.05800
N130        N  0.18437838  0.18633679  0.45413937    -0.25800
N131        N  0.19618129  0.17420704  0.47463308    -0.33700
C132        C  0.21712011  0.18987674  0.48362763     0.02500
C133        C  0.21928772  0.21310442  0.46791206     0.08600
C134        C  0.19764099  0.21073631  0.44972615    -0.04500
H135        H  0.22873964  0.18526272  0.50132426     0.09200
H136        H  0.19152861  0.22594952  0.43506156     0.10400
Cu137      Cu  0.18611404  0.13585831  0.48852338     0.44200
Cu138      Cu  0.15039560  0.16727305  0.43573707     0.42000
Cu139      Cu  0.14947426  0.09023882  0.44761353     0.43900
N140        N  0.19520294  0.09461340  0.48719330    -0.33200
N141        N  0.18321083  0.07699358  0.47077678    -0.27500
C142        C  0.19632193  0.05220722  0.47301006    -0.03600
C143        C  0.21796162  0.05505910  0.49119474     0.08700
C144        C  0.21602494  0.08204535  0.50012462     0.02500
H145        H  0.19033859  0.03342013  0.46263295     0.10100
H146        H  0.22792219  0.09174902  0.51566561     0.09200
N147        N  0.11668697  0.11335423  0.43094061    -0.34600
N148        N  0.11713403  0.14067240  0.42673671    -0.26800
C149        C  0.09228558  0.14861759  0.41685603    -0.02100
C150        C  0.07541628  0.12538989  0.41484351     0.06500
C151        C  0.09147957  0.10339276  0.42378760     0.04600
H152        H  0.08688175  0.16981696  0.41163298     0.09700
H153        H  0.08529343  0.08174215  0.42511587     0.08600
N154        N  0.31484147  0.18547299  0.45229076    -0.25800
N155        N  0.30510631  0.17414913  0.47414725    -0.33700
C156        C  0.28544530  0.19048891  0.48459769     0.02500
C157        C  0.28182519  0.21312007  0.46833149     0.08600
C158        C  0.30138604  0.20985194  0.44829882    -0.04500
H159        H  0.27530044  0.18647332  0.50323301     0.09200
H160        H  0.30585642  0.22432020  0.43247488     0.10400
Cu161      Cu  0.31502365  0.13529909  0.48725046     0.44200
Cu162      Cu  0.34670320  0.16561757  0.43146615     0.42000
Cu163      Cu  0.34829098  0.08911195  0.44394895     0.43900
N164        N  0.30497520  0.09411560  0.48587692    -0.33200
N165        N  0.31554655  0.07650328  0.46858430    -0.27500
C166        C  0.30201348  0.05197979  0.47111033    -0.03600
C167        C  0.28157269  0.05495320  0.49045183     0.08700
C168        C  0.28469618  0.08172054  0.49973366     0.02500
H169        H  0.30695001  0.03326011  0.46014757     0.10100
H170        H  0.27396112  0.09135929  0.51606080     0.09200
N171        N  0.38081829  0.11206915  0.42674073    -0.34600
N172        N  0.38005779  0.13930704  0.42219183    -0.26800
C173        C  0.40497078  0.14749408  0.41265141    -0.02100
C174        C  0.42221532  0.12449786  0.41122665     0.06500
C175        C  0.40630559  0.10237977  0.42016379     0.04600
H176        H  0.41027671  0.16875992  0.40758416     0.09700
H177        H  0.41288309  0.08090213  0.42215750     0.08600
N178        N  0.18434255  0.43607434  0.54648583    -0.25800
N179        N  0.19592593  0.42409793  0.52580027    -0.33700
C180        C  0.21663618  0.43993459  0.51660365     0.02500
C181        C  0.21889873  0.46308824  0.53240433     0.08600
C182        C  0.19752821  0.46052688  0.55084706    -0.04500
H183        H  0.22808698  0.43543965  0.49878049     0.09200
H184        H  0.19157113  0.47561566  0.56568368     0.10400
Cu185      Cu  0.18603793  0.38563978  0.51205193     0.44200
Cu186      Cu  0.15070836  0.41674026  0.56515167     0.42000
Cu187      Cu  0.14956959  0.33975014  0.55280617     0.43900
N188        N  0.19537886  0.34444158  0.51335535    -0.33200
N189        N  0.18341441  0.32671351  0.52968199    -0.27500
C190        C  0.19661971  0.30198465  0.52738443    -0.03600
C191        C  0.21828892  0.30498144  0.50925177     0.08700
C192        C  0.21628046  0.33200168  0.50042567     0.02500
H193        H  0.19066772  0.28313045  0.53766644     0.10100
H194        H  0.22816328  0.34180873  0.48493663     0.09200
N195        N  0.11679768  0.36289514  0.56947123    -0.34600
N196        N  0.11736864  0.39017675  0.57387309    -0.26800
C197        C  0.09251492  0.39819032  0.58367235    -0.02100
C198        C  0.07550498  0.37505433  0.58542422     0.06500
C199        C  0.09148922  0.35302559  0.57641723     0.04600
H200        H  0.08720337  0.41938069  0.58901279     0.09700
H201        H  0.08518675  0.33142090  0.57491551     0.08600
N202        N  0.31485400  0.43577499  0.54782903    -0.25800
N203        N  0.30488402  0.42431401  0.52612872    -0.33700
C204        C  0.28495713  0.44047991  0.51589118     0.02500
C205        C  0.28142258  0.46315223  0.53212423     0.08600
C206        C  0.30130053  0.46008190  0.55190814    -0.04500
H207        H  0.27464445  0.43637006  0.49735822     0.09200
H208        H  0.30594444  0.47466423  0.56759469     0.10400
Cu209      Cu  0.31498363  0.38558323  0.51283482     0.44200
Cu210      Cu  0.34709508  0.41622207  0.56840352     0.42000
Cu211      Cu  0.34832240  0.33970072  0.55635294     0.43900
N212        N  0.30514121  0.34435419  0.51425854    -0.33200
N213        N  0.31571337  0.32687165  0.53166815    -0.27500
C214        C  0.30227749  0.30228665  0.52922321    -0.03600
C215        C  0.28189652  0.30508246  0.50980614     0.08700
C216        C  0.28495564  0.33180831  0.50039692     0.02500
H217        H  0.30722770  0.28365282  0.54030925     0.10100
H218        H  0.27421241  0.34132328  0.48400671     0.09200
N219        N  0.38090905  0.36256116  0.57355238    -0.34600
N220        N  0.38032730  0.38983632  0.57791502    -0.26800
C221        C  0.40526250  0.39790638  0.58750792    -0.02100
C222        C  0.42232389  0.37478166  0.58915952     0.06500
C223        C  0.40628667  0.35272643  0.58029958     0.04600
H224        H  0.41070887  0.41916774  0.59246002     0.09700
H225        H  0.41270999  0.33118664  0.57846227     0.08600
C226        C  0.39842598  0.38891287  0.26259299     0.03800
C227        C  0.39853191  0.35938167  0.26183857     0.03700
C228        C  0.37639222  0.34530098  0.24986624    -0.16800
C229        C  0.35414024  0.35988978  0.23862042     0.03800
C230        C  0.35406069  0.38944581  0.23933339     0.03700
C231        C  0.37620506  0.40350922  0.25132165    -0.16800
H232        H  0.37616238  0.42613188  0.25185383     0.05800
H233        H  0.37645869  0.32267823  0.24934214     0.05800
C234        C  0.14842934  0.36016865  0.23866524     0.03800
C235        C  0.14854287  0.38970046  0.23942609     0.03700
C236        C  0.12641660  0.40378191  0.25141628    -0.16800
C237        C  0.10416088  0.38919762  0.26265896     0.03800
C238        C  0.10406115  0.35964133  0.26192213     0.03700
C239        C  0.12620085  0.34557458  0.24992869    -0.16800
H240        H  0.12614867  0.32295225  0.24938638     0.05800
H241        H  0.12649289  0.42640433  0.25194971     0.05800
N242        N  0.44612366  0.43974630  0.29128946    -0.25800
N243        N  0.46119013  0.42891037  0.27210725    -0.33700
C244        C  0.44717475  0.40828635  0.26034902     0.02500
C245        C  0.42191429  0.40540216  0.27281189     0.08600
C246        C  0.42146572  0.42620190  0.29199342    -0.04500
H247        H  0.45450506  0.39723876  0.24314156     0.09200
H248        H  0.40428657  0.43149150  0.30489400     0.10400
Cu249      Cu  0.50122703  0.43962561  0.26439564     0.44200
Cu250      Cu  0.46215552  0.47285902  0.31342145     0.42000
Cu251      Cu  0.04020365  0.47330533  0.31318268     0.43900
N252        N  0.04138208  0.42926483  0.27195466    -0.33200
N253        N  0.05640714  0.44017580  0.29112809    -0.27500
C254        C  0.08106779  0.42662715  0.29191162    -0.03600
C255        C  0.08065737  0.40574433  0.27279441     0.08700
C256        C  0.05543565  0.40863005  0.26025933     0.02500
H257        H  0.09821425  0.43194283  0.30484356     0.10100
H258        H  0.04813925  0.39756154  0.24305308     0.09200
N259        N  0.01486045  0.50611321  0.32631100    -0.34600
N260        N  0.48718102  0.50592419  0.32642359    -0.26800
C261        C  0.47796696  0.03098552  0.33474374    -0.02100
C262        C  0.50078295  0.04767505  0.33995637     0.06500
C263        C  0.02378983  0.03131105  0.33455242     0.04600
H264        H  0.45622776  0.03669794  0.33659488     0.09700
H265        H  0.04546056  0.03733294  0.33623369     0.08600
N266        N  0.19613237  0.30940877  0.20985081    -0.25800
N267        N  0.21117416  0.32013514  0.22910905    -0.33700
C268        C  0.19714857  0.34070811  0.24093833     0.02500
C269        C  0.17191458  0.34367791  0.22844010     0.08600
C270        C  0.17148627  0.32297725  0.20916366    -0.04500
H271        H  0.20445909  0.35167685  0.25820050     0.09200
H272        H  0.15433072  0.31777379  0.19620168     0.10400
Cu273      Cu  0.25121801  0.30938761  0.23680833     0.44200
Cu274      Cu  0.21216480  0.27638836  0.18759197     0.42000
Cu275      Cu  0.29017345  0.27599016  0.18780872     0.43900
N276        N  0.29137967  0.31978826  0.22927558    -0.33200
N277        N  0.30637078  0.30901138  0.21001055    -0.27500
C278        C  0.33101534  0.32259007  0.20924616    -0.03600
C279        C  0.33063346  0.34335135  0.22847826     0.08700
C280        C  0.30544851  0.34036102  0.24105825     0.02500
H281        H  0.34813044  0.31737784  0.19624156     0.10100
H282        H  0.29818143  0.35133294  0.25833195     0.09200
N283        N  0.26486645  0.24316050  0.17466999    -0.34600
N284        N  0.23718777  0.24332843  0.17456767    -0.26800
C285        C  0.22798969  0.21824351  0.16629228    -0.02100
C286        C  0.25081635  0.20156020  0.16109738     0.06500
C287        C  0.27381296  0.21795473  0.16646552     0.04600
H288        H  0.20625388  0.21250488  0.16447496     0.09700
H289        H  0.29548740  0.21194201  0.16480251     0.08600
N290        N  0.44653395  0.30812251  0.28949152    -0.25800
N291        N  0.46121769  0.31873689  0.26992061    -0.33700
C292        C  0.44698434  0.33932141  0.25830208     0.02500
C293        C  0.42207331  0.34247732  0.27134608     0.08600
C294        C  0.42197913  0.32182830  0.29065705    -0.04500
H295        H  0.45400705  0.35035731  0.24096354     0.09200
H296        H  0.40514790  0.31683368  0.30406272     0.10400
Cu297      Cu  0.50137141  0.30833922  0.26197681     0.44200
Cu298      Cu  0.46280365  0.27519849  0.31177856     0.42000
Cu299      Cu  0.04044931  0.27431952  0.31102984     0.43900
N300        N  0.04152519  0.31873510  0.26992889    -0.33200
N301        N  0.05644668  0.30773377  0.28914489    -0.27500
C302        C  0.08095508  0.32153038  0.29035340    -0.03600
C303        C  0.08058110  0.34264922  0.27148178     0.08700
C304        C  0.05554876  0.33964609  0.25860900     0.02500
H305        H  0.09796541  0.31627433  0.30346583     0.10100
H306        H  0.04833744  0.35092374  0.24148683     0.09200
N307        N  0.01522854  0.24176579  0.32501251    -0.34600
N308        N  0.48756045  0.24215600  0.32534206    -0.26800
C309        C  0.47823700  0.21737465  0.33429703    -0.02100
C310        C  0.50097203  0.20063322  0.33972432     0.06500
C311        C  0.02405501  0.21670446  0.33375148     0.04600
H312        H  0.45647198  0.21185937  0.33639384     0.09700
H313        H  0.04569598  0.21055478  0.33535905     0.08600
N314        N  0.19652610  0.44103239  0.21185571    -0.25800
N315        N  0.21123955  0.43032089  0.23135928    -0.33700
C316        C  0.19702489  0.40968786  0.24291821     0.02500
C317        C  0.17208231  0.40660620  0.22991316     0.08600
C318        C  0.17195930  0.42734522  0.21068388    -0.04500
H319        H  0.20407726  0.39857899  0.26020424     0.09200
H320        H  0.15509865  0.43241366  0.19733460     0.10400
Cu321      Cu  0.25138186  0.44070279  0.23931305     0.44200
Cu322      Cu  0.21280611  0.47404190  0.18966665     0.42000
Cu323      Cu  0.29048858  0.47493834  0.19044086     0.43900
N324        N  0.29152271  0.43032850  0.23134834    -0.33200
N325        N  0.30648036  0.44144067  0.21221776    -0.27500
C326        C  0.33099960  0.42766584  0.21100184    -0.03600
C327        C  0.33058903  0.40644373  0.22977086     0.08700
C328        C  0.30552249  0.40935894  0.24259406     0.02500
H329        H  0.34804194  0.43300551  0.19795872     0.10100
H330        H  0.29827668  0.39799296  0.25964919     0.09200
N331        N  0.26525355  0.50747344  0.17643619    -0.34600
N332        N  0.23758428  0.50708197  0.17609390    -0.26800
C333        C  0.22826874  0.03184527  0.16708048    -0.02100
C334        C  0.25100923  0.04857444  0.16163003     0.06500
C335        C  0.27408556  0.03251417  0.16765091     0.04600
H336        H  0.20650569  0.03735393  0.16494923     0.09700
H337        H  0.29572834  0.03865388  0.16603289     0.08600
C338        C  0.49980626  0.12411269  0.37662743    -0.01000
C339        C  0.48519006  0.21966943  0.00098955     0.03800
C340        C  0.01479517  0.21966853  0.00122244     0.03700
C341        C  0.02921245  0.24180688  0.98954236    -0.16800
C342        C  0.01495811  0.26421807  0.97822789     0.03800
C343        C  0.48543228  0.26420649  0.97799130     0.03700
C344        C  0.47098912  0.24178419  0.98905869    -0.16800
H345        H  0.44836106  0.24202238  0.98920679     0.05800
H346        H  0.05183467  0.24205351  0.99004940     0.05800
C347        C  0.48559165  0.46965735  0.99890223     0.03800
C348        C  0.01519479  0.46966767  0.99863751     0.03700
C349        C  0.02961725  0.99184840  0.01025545    -0.16800
C350        C  0.01535718  0.01424749  0.02160127     0.03800
C351        C  0.48582896  0.01418163  0.02192997     0.03700
C352        C  0.47139639  0.99174284  0.01088155    -0.16800
H353        H  0.44876766  0.99195349  0.01076838     0.05800
H354        H  0.05223782  0.99211659  0.00971241     0.05800
N355        N  0.43428131  0.06468221  0.04451327    -0.25800
N356        N  0.44609265  0.07770799  0.02452803    -0.33700
C357        C  0.46712821  0.06252837  0.01499126     0.02500
C358        C  0.46931146  0.03864160  0.02978278     0.08600
C359        C  0.44761370  0.04015676  0.04800350    -0.04500
H360        H  0.47881961  0.06796512  0.99754591     0.09200
H361        H  0.44152845  0.02430931  0.06206357     0.10400
Cu362      Cu  0.43584740  0.11654010  0.01215620     0.44200
Cu363      Cu  0.40026028  0.08296279  0.06360297     0.42000
Cu364      Cu  0.39953374  0.16055580  0.05479654     0.43900
N365        N  0.44523281  0.15758100  0.01513864    -0.33200
N366        N  0.43330904  0.17462623  0.03212911    -0.27500
C367        C  0.44650981  0.19943933  0.03069679    -0.03600
C368        C  0.46815932  0.19713826  0.01245432     0.08700
C369        C  0.46612926  0.17050599  0.00266628     0.02500
H370        H  0.44054968  0.21788838  0.04161358     0.10100
H371        H  0.47800095  0.16133338  0.98681537     0.09200
N372        N  0.36672103  0.13676462  0.07055579    -0.34600
N373        N  0.36707517  0.10927855  0.07366365    -0.26800
C374        C  0.34220397  0.10099666  0.08325337    -0.02100
C375        C  0.32542315  0.12418100  0.08621267     0.06500
C376        C  0.34156277  0.14649019  0.07813248     0.04600
H377        H  0.33672867  0.07960660  0.08764605     0.09700
H378        H  0.33546263  0.16820546  0.07768530     0.08600
N379        N  0.06579670  0.42471791  0.96558260    -0.25800
N380        N  0.05539003  0.40785969  0.98362113    -0.33700
C381        C  0.03519211  0.42080299  0.99710689     0.02500
C382        C  0.03198078  0.44714059  0.98683783     0.08600
C383        C  0.05226841  0.44933145  0.96726926    -0.04500
H384        H  0.02452596  0.41185125  0.01382959     0.09200
H385        H  0.05710923  0.46758135  0.95558507     0.10400
Cu386      Cu  0.06548261  0.36681898  0.98662289     0.44200
Cu387      Cu  0.09831561  0.41101383  0.94122804     0.42000
Cu388      Cu  0.09724225  0.33393489  0.93225632     0.43900
N389        N  0.05514333  0.32762589  0.97489105    -0.33200
N390        N  0.06504667  0.31523547  0.95363033    -0.27500
C391        C  0.05142099  0.29081370  0.95050382    -0.03600
C392        C  0.03156336  0.28863922  0.97041779     0.08700
C393        C  0.03515981  0.31198530  0.98575399     0.02500
H394        H  0.05598729  0.27556990  0.93537054     0.10100
H395        H  0.02483544  0.31693805  0.00409699     0.09200
N396        N  0.13040086  0.35999281  0.92166884    -0.34600
N397        N  0.13090402  0.38744472  0.92492057    -0.26800
C398        C  0.15625306  0.39704077  0.91778993    -0.02100
C399        C  0.17236386  0.37465912  0.90983983     0.06500
C400        C  0.15536932  0.35157531  0.91241862     0.04600
H401        H  0.16261382  0.41866196  0.91876752     0.09700
H402        H  0.16088681  0.33012645  0.90834092     0.08600
N403        N  0.06499119  0.06556471  0.04653076    -0.25800
N404        N  0.05536317  0.07778838  0.02507162    -0.33700
C405        C  0.03565600  0.06196963  0.01398410     0.02500
C406        C  0.03193258  0.03869816  0.02939235     0.08600
C407        C  0.05144335  0.04108854  0.04958872    -0.04500
H408        H  0.02553491  0.06679749  0.99550633     0.09200
H409        H  0.05580912  0.02597657  0.06489162     0.10400
Cu410      Cu  0.06553633  0.11707531  0.01348534     0.44200
Cu411      Cu  0.09680086  0.08456051  0.06817949     0.42000
Cu412      Cu  0.09826087  0.16160153  0.05869403     0.43900
N413        N  0.05520887  0.15806681  0.01644240    -0.33200
N414        N  0.06559882  0.17505367  0.03438340    -0.27500
C415        C  0.05195435  0.19959691  0.03263267    -0.03600
C416        C  0.03161020  0.19722711  0.01312994     0.08700
C417        C  0.03490963  0.17085672  0.00296056     0.02500
H418        H  0.05677175  0.21793190  0.04420809     0.10100
H419        H  0.02426594  0.16179032  0.98628027     0.09200
N420        N  0.13078706  0.13796362  0.07503420    -0.34600
N421        N  0.13009864  0.11054631  0.07851147    -0.26800
C422        C  0.15504353  0.10202518  0.08772476    -0.02100
C423        C  0.17222467  0.12499453  0.09004279     0.06500
C424        C  0.15624579  0.14743104  0.08198054     0.04600
H425        H  0.16041710  0.08057236  0.09195114     0.09700
H426        H  0.16276239  0.16899540  0.08081619     0.08600
N427        N  0.43355012  0.42487488  0.96768379    -0.25800
N428        N  0.44541714  0.40773755  0.98462746    -0.33700
C429        C  0.46640057  0.42053824  0.99709248     0.02500
C430        C  0.46853781  0.44718520  0.98735655     0.08600
C431        C  0.44687189  0.44961947  0.96914471    -0.04500
H432        H  0.47823748  0.41128408  0.01292457     0.09200
H433        H  0.44096297  0.46812573  0.95829049     0.10400
Cu434      Cu  0.43574260  0.36675309  0.98764801     0.44200
Cu435      Cu  0.39965668  0.41104056  0.94504539     0.42000
Cu436      Cu  0.40066819  0.33353301  0.93572974     0.43900
N437        N  0.44584133  0.32783564  0.97538040    -0.33200
N438        N  0.43430972  0.31500079  0.95513660    -0.27500
C439        C  0.44758786  0.29044398  0.95167102    -0.03600
C440        C  0.46896179  0.28870885  0.97020357     0.08700
C441        C  0.46663286  0.31248053  0.98514081     0.02500
H442        H  0.44169936  0.27474793  0.93738361     0.10100
H443        H  0.47811234  0.31775939  0.00275931     0.09200
N444        N  0.36737347  0.35977258  0.92595385    -0.34600
N445        N  0.36686361  0.38722649  0.92928004    -0.26800
C446        C  0.34158780  0.39684425  0.92192671    -0.02100
C447        C  0.32555218  0.37448409  0.91377400     0.06500
C448        C  0.34250436  0.35139984  0.91644907     0.04600
H449        H  0.33534310  0.41851314  0.92256633     0.09700
H450        H  0.33714633  0.33000921  0.91192883     0.08600
C451        C  0.24986455  0.12503232  0.12458454    -0.01000
C452        C  0.25006936  0.37495509  0.87538200    -0.01000
C453        C  0.29751720  0.37508075  0.90329155    -0.11800
C454        C  0.27499418  0.37508148  0.89244508    -0.13400
C455        C  0.20074021  0.12533903  0.09933604    -0.11800
C456        C  0.22386205  0.12521867  0.10900420    -0.13400
C457        C  0.20085822  0.37516013  0.90049287    -0.11800
C458        C  0.22399339  0.37516283  0.89085281    -0.13400
C459        C  0.27488481  0.12508810  0.10762835    -0.11800
C460        C  0.29742160  0.12492238  0.09679584    -0.13400
C461        C  0.25069186  0.07667134  0.15120347    -0.11800
C462        C  0.25032872  0.09943651  0.14078604    -0.13400
C463        C  0.50025883  0.14972589  0.36045473    -0.11800
C464        C  0.50063851  0.17251092  0.35008062    -0.13400
C465        C  0.25065511  0.17329063  0.15119840    -0.11800
C466        C  0.25039459  0.15046789  0.14094020    -0.13400
C467        C  0.50033075  0.09870415  0.36024140    -0.11800
C468        C  0.50060303  0.07591107  0.34992989    -0.13400
C469        C  0.45072103  0.12388065  0.40193109    -0.11800
C470        C  0.47382601  0.12391390  0.39223285    -0.13400
C471        C  0.02483722  0.12405738  0.39356131    -0.11800
C472        C  0.04739095  0.12433910  0.40435445    -0.13400
C473        C  0.02491682  0.37395669  0.60663845    -0.11800
C474        C  0.04745225  0.37411599  0.59582499    -0.12600
C475        C  0.45080655  0.37398450  0.59851266    -0.11800
C476        C  0.47392640  0.37385878  0.60818256    -0.13400
C477        C  0.25073966  0.40035525  0.85898363    -0.11800
C478        C  0.25115262  0.42319130  0.84875733    -0.13400
C479        C  0.25080939  0.32647808  0.84895203    -0.11800
C480        C  0.25058895  0.34930402  0.85925688    -0.13400
C481        C  0.00049285  0.39967067  0.63982337    -0.11800
C482        C  0.00073229  0.42250102  0.65011239    -0.13400
C483        C  0.00064835  0.34863203  0.64006354    -0.11800
C484        C  0.00106715  0.32581690  0.65032731    -0.13400
C485        C  0.14555085  0.60970139  0.76533583     0.03800
C486        C  0.14562323  0.63922672  0.76472130     0.03700
C487        C  0.12346778  0.65334745  0.75283557    -0.16800
C488        C  0.10131044  0.63880747  0.74136097     0.03800
C489        C  0.10119284  0.60923318  0.74203435     0.03700
C490        C  0.12327852  0.59513329  0.75411186    -0.16800
H491        H  0.12332550  0.57250709  0.75445323     0.05800
H492        H  0.12362905  0.67596810  0.75225256     0.05800
C493        C  0.39561689  0.60966910  0.73430666     0.03800
C494        C  0.39554700  0.63919277  0.73366515     0.03700
C495        C  0.37328002  0.65377444  0.74487658    -0.16800
C496        C  0.35119226  0.63968974  0.75696044     0.03800
C497        C  0.35129239  0.61011646  0.75763767     0.03700
C498        C  0.37344923  0.59556107  0.74618261    -0.16800
H499        H  0.37360271  0.57294064  0.74677818     0.05800
H500        H  0.37333447  0.67640046  0.74452339     0.05800
N501        N  0.44462069  0.68964547  0.70648144    -0.25800
N502        N  0.45877479  0.67891856  0.72632989    -0.33700
C503        C  0.44413456  0.65849760  0.73769184     0.02500
C504        C  0.41943803  0.65561885  0.72425415     0.08600
C505        C  0.41992922  0.67623339  0.70490880    -0.04500
H506        H  0.45064553  0.64755064  0.75525080     0.09200
H507        H  0.40336746  0.68147833  0.69128797     0.10400
Cu508      Cu  0.99852169  0.68941889  0.73553885     0.44200
Cu509      Cu  0.46181325  0.72246946  0.68481950     0.42000
Cu510      Cu  0.03980385  0.72338043  0.68870386     0.43900
N511        N  0.03899018  0.67902078  0.72969882    -0.33200
N512        N  0.05492615  0.69006022  0.71126688    -0.27500
C513        C  0.07958052  0.67647718  0.71146427    -0.03600
C514        C  0.07825682  0.65545846  0.73042441     0.08700
C515        C  0.05245397  0.65828481  0.74186862     0.02500
H516        H  0.09732717  0.68185040  0.69930362     0.10100
H517        H  0.04432599  0.64712239  0.75867543     0.09200
N518        N  0.01492912  0.75607903  0.67443295    -0.34600
N519        N  0.48729202  0.75563452  0.67300448    -0.26800
C520        C  0.47827248  0.78061157  0.66431000    -0.02100
C521        C  0.00114342  0.79754369  0.66020932     0.06500
C522        C  0.02402166  0.78139772  0.66666122     0.04600
H523        H  0.45659687  0.78611180  0.66147358     0.09700
H524        H  0.04568839  0.78765203  0.66602038     0.08600
N525        N  0.44451910  0.55842801  0.70811487    -0.25800
N526        N  0.45848425  0.56902840  0.72816116    -0.33700
C527        C  0.44387097  0.58964495  0.73927224     0.02500
C528        C  0.41946820  0.59284388  0.72540688     0.08600
C529        C  0.42004151  0.57217489  0.70612282    -0.04500
H530        H  0.45023483  0.60062769  0.75686813     0.09200
H531        H  0.40368049  0.56715629  0.69221108     0.10400
Cu532      Cu  0.99820287  0.55846654  0.73772916     0.44200
Cu533      Cu  0.46151718  0.52540511  0.68648621     0.42000
Cu534      Cu  0.03912816  0.52436933  0.69033816     0.43900
N535        N  0.03879576  0.56856599  0.73165874    -0.33200
N536        N  0.05445657  0.55756145  0.71298244    -0.27500
C537        C  0.07908227  0.57120408  0.71278473    -0.03600
C538        C  0.07805085  0.59221815  0.73174784     0.08700
C539        C  0.05246683  0.58931443  0.74363727     0.02500
H540        H  0.09657603  0.56595622  0.70025313     0.10100
H541        H  0.04457730  0.60058547  0.76049128     0.09200
N542        N  0.01442548  0.49185440  0.67541806    -0.34600
N543        N  0.48679500  0.49230267  0.67399757    -0.26800
C544        C  0.47780957  0.96750344  0.66478389    -0.02100
C545        C  0.00071795  0.95068433  0.66032369     0.06500
C546        C  0.02356145  0.96672999  0.66713111     0.04600
H547        H  0.45613985  0.96202266  0.66187265     0.09700
H548        H  0.04523626  0.96051341  0.66641874     0.08600
N549        N  0.19450151  0.69053520  0.79085361    -0.25800
N550        N  0.20850209  0.67983319  0.77088056    -0.33700
C551        C  0.19391285  0.65916473  0.75982844     0.02500
C552        C  0.16947350  0.65604396  0.77364515     0.08600
C553        C  0.17001115  0.67680762  0.79284450    -0.04500
H554        H  0.20030946  0.64810986  0.74228530     0.09200
H555        H  0.15361402  0.68190541  0.80669041     0.10400
Cu556      Cu  0.24819825  0.69039040  0.76128463     0.44200
Cu557      Cu  0.21150072  0.72364783  0.81238796     0.42000
Cu558      Cu  0.28914598  0.72468445  0.80849643     0.43900
N559        N  0.28879042  0.68033188  0.76732964    -0.33200
N560        N  0.30448503  0.69143476  0.78592846    -0.27500
C561        C  0.32912547  0.67781915  0.78612120    -0.03600
C562        C  0.32806286  0.65671934  0.76724257     0.08700
C563        C  0.30244397  0.65954018  0.75540560     0.02500
H564        H  0.34664706  0.68313799  0.79859291     0.10100
H565        H  0.29451823  0.64818789  0.73861574     0.09200
N566        N  0.26444324  0.75717664  0.82347120    -0.34600
N567        N  0.23681250  0.75673304  0.82490930    -0.26800
C568        C  0.22784810  0.78151195  0.83419478    -0.02100
C569        C  0.25076851  0.79831231  0.83868340     0.06500
C570        C  0.27359670  0.78227502  0.83181519     0.04600
H571        H  0.20618390  0.78699229  0.83713941     0.09700
H572        H  0.29527520  0.78847925  0.83252988     0.08600
N573        N  0.19465428  0.55932363  0.79262385    -0.25800
N574        N  0.20876575  0.56993373  0.77269156    -0.33700
C575        C  0.19410098  0.59029545  0.76125716     0.02500
C576        C  0.16944187  0.59326413  0.77473886     0.08600
C577        C  0.16997319  0.57275808  0.79418517    -0.04500
H578        H  0.20057958  0.60116285  0.74364236     0.09200
H579        H  0.15344974  0.56760758  0.80787812     0.10400
Cu580      Cu  0.24852614  0.55942027  0.76350371     0.44200
Cu581      Cu  0.21187607  0.52660470  0.81441708     0.42000
Cu582      Cu  0.28982423  0.52571863  0.81054069     0.43900
N583        N  0.28899528  0.56987215  0.76933887    -0.33200
N584        N  0.30491042  0.55895313  0.78785440    -0.27500
C585        C  0.32954577  0.57256868  0.78764584    -0.03600
C586        C  0.32823571  0.59348251  0.76858557     0.08700
C587        C  0.30246304  0.59055896  0.75709558     0.02500
H588        H  0.34727188  0.56728554  0.79987029     0.10100
H589        H  0.29435708  0.60163157  0.74022375     0.09200
N590        N  0.26498665  0.49299975  0.82481044    -0.34600
N591        N  0.23735058  0.49343291  0.82623817    -0.26800
C592        C  0.22834053  0.96843242  0.83488339    -0.02100
C593        C  0.25121809  0.95149665  0.83894982     0.06500
C594        C  0.27408992  0.96766724  0.83253229     0.04600
H595        H  0.20666633  0.96291335  0.83769455     0.09700
H596        H  0.29575819  0.96141542  0.83314751     0.08600
C597        C  0.99998348  0.87403864  0.62367891    -0.01000
C598        C  0.23507320  0.53281385  0.50309893     0.03800
C599        C  0.26469657  0.53280618  0.50282849     0.03700
C600        C  0.27910242  0.01054061  0.51432190    -0.16800
C601        C  0.26485510  0.98790749  0.52523788     0.03800
C602        C  0.23533246  0.98791900  0.52550210     0.03700
C603        C  0.22089105  0.01057718  0.51487144    -0.16800
H604        H  0.19826424  0.01027710  0.51464321     0.05800
H605        H  0.30172043  0.01021762  0.51368770     0.05800
C606        C  0.23544228  0.78281183  0.49726515     0.03800
C607        C  0.26506437  0.78283511  0.49753982     0.03700
C608        C  0.27949690  0.76053984  0.48611421    -0.16800
C609        C  0.26526575  0.73788913  0.47519632     0.03800
C610        C  0.23574210  0.73791390  0.47486304     0.03700
C611        C  0.22128756  0.76057464  0.48546882    -0.16800
H612        H  0.19866045  0.76026873  0.48567443     0.05800
H613        H  0.30211402  0.76022697  0.48677198     0.05800
N614        N  0.18437855  0.68633656  0.45413934    -0.25800
N615        N  0.19618139  0.67420691  0.47463314    -0.33700
C616        C  0.21712021  0.68987663  0.48362764     0.02500
C617        C  0.21928793  0.71310418  0.46791193     0.08600
C618        C  0.19764126  0.71073599  0.44972598    -0.04500
H619        H  0.22873972  0.68526270  0.50132437     0.09200
H620        H  0.19152899  0.72594912  0.43506125     0.10400
Cu621      Cu  0.18611414  0.63585824  0.48852358     0.44200
Cu622      Cu  0.15039572  0.66727277  0.43573707     0.42000
Cu623      Cu  0.14947396  0.59023854  0.44761412     0.43900
N624        N  0.19520281  0.59461326  0.48719367    -0.33200
N625        N  0.18321057  0.57699337  0.47077730    -0.27500
C626        C  0.19632173  0.55220704  0.47301052    -0.03600
C627        C  0.21796151  0.55505898  0.49119510     0.08700
C628        C  0.21602491  0.58204526  0.50012489     0.02500
H629        H  0.19033840  0.53341993  0.46263342     0.10100
H630        H  0.22792232  0.59174900  0.51566573     0.09200
N631        N  0.11668689  0.61335403  0.43094095    -0.34600
N632        N  0.11713412  0.64067215  0.42673678    -0.26800
C633        C  0.09228573  0.64861738  0.41685602    -0.02100
C634        C  0.07541631  0.62538975  0.41484365     0.06500
C635        C  0.09147945  0.60339263  0.42378800     0.04600
H636        H  0.08688202  0.66981672  0.41163281     0.09700
H637        H  0.08529319  0.58174203  0.42511646     0.08600
N638        N  0.31484174  0.68547281  0.45229059    -0.25800
N639        N  0.30510652  0.67414899  0.47414705    -0.33700
C640        C  0.28544548  0.69048876  0.48459745     0.02500
C641        C  0.28182541  0.71311990  0.46833121     0.08600
C642        C  0.30138635  0.70985178  0.44829862    -0.04500
H643        H  0.27530058  0.68647316  0.50323269     0.09200
H644        H  0.30585675  0.72432000  0.43247472     0.10400
Cu645      Cu  0.31502376  0.63529897  0.48725027     0.44200
Cu646      Cu  0.34670348  0.66561731  0.43146597     0.42000
Cu647      Cu  0.34829068  0.58911166  0.44394857     0.43900
N648        N  0.30497512  0.59411546  0.48587672    -0.33200
N649        N  0.31554637  0.57650307  0.46858411    -0.27500
C650        C  0.30201324  0.55197961  0.47111021    -0.03600
C651        C  0.28157257  0.55495308  0.49045180     0.08700
C652        C  0.28469615  0.58172045  0.49973359     0.02500
H653        H  0.30694968  0.53325991  0.46014749     0.10100
H654        H  0.27396125  0.59135922  0.51606075     0.09200
N655        N  0.38081822  0.61206875  0.42674049    -0.34600
N656        N  0.38005783  0.63930663  0.42219164    -0.26800
C657        C  0.40497085  0.64749364  0.41265126    -0.02100
C658        C  0.42221531  0.62449736  0.41122646     0.06500
C659        C  0.40630550  0.60237929  0.42016356     0.04600
H660        H  0.41027682  0.66875943  0.40758414     0.09700
H661        H  0.41288293  0.58090163  0.42215723     0.08600
N662        N  0.18434248  0.93607430  0.54648523    -0.25800
N663        N  0.19592594  0.92409788  0.52579973    -0.33700
C664        C  0.21663616  0.93993460  0.51660309     0.02500
C665        C  0.21889859  0.96308827  0.53240374     0.08600
C666        C  0.19752806  0.96052690  0.55084644    -0.04500
H667        H  0.22808701  0.93543965  0.49877997     0.09200
H668        H  0.19157095  0.97561567  0.56568302     0.10400
Cu669      Cu  0.18603803  0.88563971  0.51205135     0.44200
Cu670      Cu  0.15070828  0.91674019  0.56515106     0.42000
Cu671      Cu  0.14956952  0.83975006  0.55280557     0.43900
N672        N  0.19537900  0.84444152  0.51335489    -0.33200
N673        N  0.18341453  0.82671344  0.52968151    -0.27500
C674        C  0.19661983  0.80198458  0.52738388    -0.03600
C675        C  0.21828907  0.80498139  0.50925126     0.08700
C676        C  0.21628058  0.83200163  0.50042516     0.02500
H677        H  0.19066782  0.78313031  0.53766579     0.10100
H678        H  0.22816337  0.84180869  0.48493614     0.09200
N679        N  0.11679763  0.86289505  0.56947067    -0.34600
N680        N  0.11736858  0.89017666  0.57387251    -0.26800
C681        C  0.09251491  0.89819021  0.58367190    -0.02100
C682        C  0.07550498  0.87505421  0.58542384     0.06500
C683        C  0.09148922  0.85302545  0.57641683     0.04600
H684        H  0.08720339  0.91938059  0.58901235     0.09700
H685        H  0.08518680  0.83142081  0.57491519     0.08600
N686        N  0.31485394  0.93577494  0.54782865    -0.25800
N687        N  0.30488397  0.92431401  0.52612831    -0.33700
C688        C  0.28495703  0.94047990  0.51589081     0.02500
C689        C  0.28142243  0.96315217  0.53212392     0.08600
C690        C  0.30130043  0.96008183  0.55190781    -0.04500
H691        H  0.27464442  0.93637012  0.49735783     0.09200
H692        H  0.30594439  0.97466417  0.56759434     0.10400
Cu693      Cu  0.31498373  0.88558335  0.51283422     0.44200
Cu694      Cu  0.34709515  0.91622203  0.56840310     0.42000
Cu695      Cu  0.34832266  0.83970085  0.55635231     0.43900
N696        N  0.30514140  0.84435426  0.51425779    -0.33200
N697        N  0.31571361  0.82687174  0.53166741    -0.27500
C698        C  0.30227768  0.80228675  0.52922256    -0.03600
C699        C  0.28189670  0.80508250  0.50980551     0.08700
C700        C  0.28495576  0.83180835  0.50039626     0.02500
H701        H  0.30722783  0.78365295  0.54030868     0.10100
H702        H  0.27421242  0.84132327  0.48400605     0.09200
N703        N  0.38090919  0.86256126  0.57355198    -0.34600
N704        N  0.38032742  0.88983641  0.57791462    -0.26800
C705        C  0.40526261  0.89790647  0.58750755    -0.02100
C706        C  0.42232401  0.87478176  0.58915916     0.06500
C707        C  0.40628680  0.85272651  0.58029919     0.04600
H708        H  0.41070895  0.91916784  0.59245970     0.09700
H709        H  0.41271010  0.83118680  0.57846184     0.08600
C710        C  0.39842313  0.88891276  0.26259596     0.03800
C711        C  0.39852895  0.85938158  0.26184169     0.03700
C712        C  0.37638924  0.84530089  0.24986939    -0.16800
C713        C  0.35413745  0.85988970  0.23862325     0.03800
C714        C  0.35405795  0.88944574  0.23933615     0.03700
C715        C  0.37620224  0.90350914  0.25132457    -0.16800
H716        H  0.37615966  0.92613180  0.25185661     0.05800
H717        H  0.37645569  0.82267815  0.24934527     0.05800
C718        C  0.14842646  0.86016878  0.23866262     0.03800
C719        C  0.14853992  0.88970059  0.23942332     0.03700
C720        C  0.12641365  0.90378207  0.25141348    -0.16800
C721        C  0.10415805  0.88919779  0.26265639     0.03800
C722        C  0.10405839  0.85964149  0.26191972     0.03700
C723        C  0.12619801  0.84557472  0.24992615    -0.16800
H724        H  0.12614592  0.82295238  0.24938401     0.05800
H725        H  0.12648996  0.92640448  0.25194690     0.05800
N726        N  0.44612150  0.93974615  0.29129140    -0.25800
N727        N  0.46118741  0.92891035  0.27210873    -0.33700
C728        C  0.44717176  0.90828627  0.26035085     0.02500
C729        C  0.42191169  0.90540197  0.27281441     0.08600
C730        C  0.42146361  0.92620169  0.29199596    -0.04500
H731        H  0.45450155  0.89723878  0.24314318     0.09200
H732        H  0.40428475  0.93149128  0.30489692     0.10400
Cu733      Cu  0.50122402  0.93962574  0.26439603     0.44200
Cu734      Cu  0.46215395  0.97285892  0.31342302     0.42000
Cu735      Cu  0.04020210  0.97330524  0.31318206     0.43900
N736        N  0.04137948  0.92926502  0.27195365    -0.33200
N737        N  0.05640504  0.94017591  0.29112677    -0.27500
C738        C  0.08106573  0.92662731  0.29190959    -0.03600
C739        C  0.08065482  0.90574460  0.27279228     0.08700
C740        C  0.05543278  0.90863038  0.26025779     0.02500
H741        H  0.09821250  0.93194290  0.30484120     0.10100
H742        H  0.04813591  0.89756190  0.24305170     0.09200
N743        N  0.01485926  0.00611311  0.32631107    -0.34600
N744        N  0.48717985  0.00592404  0.32642452    -0.26800
C745        C  0.47796786  0.53098567  0.33474256    -0.02100
C746        C  0.50078367  0.54767517  0.33995592     0.06500
C747        C  0.02379079  0.53131114  0.33455263     0.04600
H748        H  0.45622861  0.53669808  0.33659307     0.09700
H749        H  0.04546148  0.53733301  0.33623454     0.08600
N750        N  0.19613025  0.80940883  0.20984937    -0.25800
N751        N  0.21117151  0.82013522  0.22910794    -0.33700
C752        C  0.19714561  0.84070823  0.24093685     0.02500
C753        C  0.17191197  0.84367805  0.22843798     0.08600
C754        C  0.17148416  0.82297734  0.20916155    -0.04500
H755        H  0.20445563  0.85167692  0.25819918     0.09200
H756        H  0.15432906  0.81777388  0.19619918     0.10400
Cu757      Cu  0.25121516  0.80938774  0.23680835     0.44200
Cu758      Cu  0.21216341  0.77638852  0.18759082     0.42000
Cu759      Cu  0.29017189  0.77599031  0.18780971     0.43900
N760        N  0.29137707  0.81978823  0.22927691    -0.33200
N761        N  0.30636860  0.80901145  0.21001214    -0.27500
C762        C  0.33101322  0.82259007  0.20924838    -0.03600
C763        C  0.33063090  0.84335127  0.22848058     0.08700
C764        C  0.30544565  0.84036089  0.24106003     0.02500
H765        H  0.34812862  0.81737785  0.19624416     0.10100
H766        H  0.29817817  0.85133273  0.25833358     0.09200
N767        N  0.26486532  0.74316065  0.17467022    -0.34600
N768        N  0.23718664  0.74332855  0.17456721    -0.26800
C769        C  0.22798880  0.71824365  0.16629152    -0.02100
C770        C  0.25081563  0.70156036  0.16109713     0.06500
C771        C  0.27381205  0.71795491  0.16646591     0.04600
H772        H  0.20625304  0.71250503  0.16447367     0.09700
H773        H  0.29548658  0.71194219  0.16480348     0.08600
N774        N  0.44653187  0.80812261  0.28949356    -0.25800
N775        N  0.46121501  0.81873698  0.26992223    -0.33700
C776        C  0.44698129  0.83932142  0.25830403     0.02500
C777        C  0.42207064  0.84247731  0.27134867     0.08600
C778        C  0.42197708  0.82182838  0.29065973    -0.04500
H779        H  0.45400349  0.85035730  0.24096525     0.09200
H780        H  0.40514624  0.81683378  0.30406586     0.10400
Cu781      Cu  0.50136846  0.80833936  0.26197740     0.44200
Cu782      Cu  0.46280229  0.77519863  0.31178013     0.42000
Cu783      Cu  0.04044815  0.77431963  0.31102906     0.43900
N784        N  0.04152262  0.81873535  0.26992818    -0.33200
N785        N  0.05644472  0.80773395  0.28914372    -0.27500
C786        C  0.08095317  0.82153050  0.29035155    -0.03600
C787        C  0.08057864  0.84264934  0.27147993     0.08700
C788        C  0.05554587  0.83964630  0.25860789     0.02500
H789        H  0.09796389  0.81627439  0.30346351     0.10100
H790        H  0.04833403  0.85092406  0.24148592     0.09200
N791        N  0.01522779  0.74176590  0.32501246    -0.34600
N792        N  0.48755958  0.74215614  0.32534286    -0.26800
C793        C  0.47823640  0.71737476  0.33429806    -0.02100
C794        C  0.50097163  0.70063333  0.33972467     0.06500
C795        C  0.02405450  0.71670451  0.33375108     0.04600
H796        H  0.45647151  0.71185946  0.33639543     0.09700
H797        H  0.04569552  0.71055475  0.33535795     0.08600
N798        N  0.19652404  0.94103229  0.21185393    -0.25800
N799        N  0.21123692  0.93032080  0.23135786    -0.33700
C800        C  0.19702189  0.90968783  0.24291647     0.02500
C801        C  0.17207962  0.90660625  0.22991084     0.08600
C802        C  0.17195719  0.92734522  0.21068150    -0.04500
H803        H  0.20407372  0.89857900  0.26020269     0.09200
H804        H  0.15509698  0.93241370  0.19733186     0.10400
Cu805      Cu  0.25137903  0.94070270  0.23931268     0.44200
Cu806      Cu  0.21280477  0.97404165  0.18966525     0.42000
Cu807      Cu  0.29048724  0.97493825  0.19044187     0.43900
N808        N  0.29152014  0.93032836  0.23134937    -0.33200
N809        N  0.30647841  0.94144061  0.21221926    -0.27500
C810        C  0.33099769  0.92766581  0.21100404    -0.03600
C811        C  0.33058656  0.90644368  0.22977302     0.08700
C812        C  0.30551957  0.90935877  0.24259544     0.02500
H813        H  0.34804048  0.93300554  0.19796140     0.10100
H814        H  0.29827321  0.89799269  0.25965031     0.09200
N815        N  0.26525265  0.00747327  0.17643643    -0.34600
N816        N  0.23758340  0.00708176  0.17609331    -0.26800
C817        C  0.22826933  0.53184548  0.16708134    -0.02100
C818        C  0.25100968  0.54857460  0.16163017     0.06500
C819        C  0.27408616  0.53251429  0.16765035     0.04600
H820        H  0.20650628  0.53735416  0.16495076     0.09700
H821        H  0.29572899  0.53865397  0.16603158     0.08600
C822        C  0.49980636  0.62411254  0.37662741    -0.01000
C823        C  0.48519014  0.71966937  0.00098969     0.03800
C824        C  0.01479529  0.71966852  0.00122253     0.03700
C825        C  0.02921255  0.74180694  0.98954256    -0.16800
C826        C  0.01495823  0.76421808  0.97822806     0.03800
C827        C  0.48543239  0.76420641  0.97799146     0.03700
C828        C  0.47098922  0.74178409  0.98905877    -0.16800
H829        H  0.44836117  0.74202226  0.98920681     0.05800
H830        H  0.05183478  0.74205363  0.99004965     0.05800
C831        C  0.48559177  0.96965731  0.99890257     0.03800
C832        C  0.01519487  0.96966755  0.99863794     0.03700
C833        C  0.02961716  0.49184850  0.01025504    -0.16800
C834        C  0.01535708  0.51424751  0.02160099     0.03800
C835        C  0.48582882  0.51418159  0.02192978     0.03700
C836        C  0.47139625  0.49174279  0.01088135    -0.16800
H837        H  0.44876753  0.49195337  0.01076825     0.05800
H838        H  0.05223772  0.49211670  0.00971198     0.05800
N839        N  0.43428120  0.56468216  0.04451314    -0.25800
N840        N  0.44609259  0.57770801  0.02452797    -0.33700
C841        C  0.46712811  0.56252838  0.01499112     0.02500
C842        C  0.46931130  0.53864154  0.02978258     0.08600
C843        C  0.44761355  0.54015669  0.04800329    -0.04500
H844        H  0.47881953  0.56796519  0.99754584     0.09200
H845        H  0.44152828  0.52430916  0.06206334     0.10400
Cu846      Cu  0.43584731  0.61654020  0.01215638     0.44200
Cu847      Cu  0.40026019  0.58296272  0.06360296     0.42000
Cu848      Cu  0.39953404  0.66055572  0.05479696     0.43900
N849        N  0.44523294  0.65758097  0.01513889    -0.33200
N850        N  0.43330930  0.67462615  0.03212948    -0.27500
C851        C  0.44651003  0.69943926  0.03069710    -0.03600
C852        C  0.46815940  0.69713822  0.01245446     0.08700
C853        C  0.46612932  0.67050595  0.00266643     0.02500
H854        H  0.44054997  0.71788826  0.04161394     0.10100
H855        H  0.47800090  0.66133334  0.98681544     0.09200
N856        N  0.36672117  0.63676463  0.07055614    -0.34600
N857        N  0.36707519  0.60927853  0.07366384    -0.26800
C858        C  0.34220392  0.60099667  0.08325339    -0.02100
C859        C  0.32542318  0.62418106  0.08621284     0.06500
C860        C  0.34156290  0.64649021  0.07813278     0.04600
H861        H  0.33672852  0.57960658  0.08764584     0.09700
H862        H  0.33546280  0.66820558  0.07768565     0.08600
N863        N  0.06579675  0.92471781  0.96558304    -0.25800
N864        N  0.05539024  0.90785961  0.98362167    -0.33700
C865        C  0.03519235  0.92080291  0.99710748     0.02500
C866        C  0.03198084  0.94714045  0.98683829     0.08600
C867        C  0.05226836  0.94933131  0.96726963    -0.04500
H868        H  0.02452630  0.91185119  0.01383028     0.09200
H869        H  0.05710904  0.96758111  0.95558536     0.10400
Cu870      Cu  0.06548291  0.86681890  0.98662348     0.44200
Cu871      Cu  0.09831554  0.91101375  0.94122841     0.42000
Cu872      Cu  0.09724220  0.83393486  0.93225651     0.43900
N873        N  0.05514350  0.82762585  0.97489150    -0.33200
N874        N  0.06504676  0.81523553  0.95363069    -0.27500
C875        C  0.05142108  0.79081379  0.95050408    -0.03600
C876        C  0.03156348  0.78863924  0.97041806     0.08700
C877        C  0.03516006  0.81198515  0.98575443     0.02500
H878        H  0.05598733  0.77557009  0.93537069     0.10100
H879        H  0.02483572  0.81693772  0.00409755     0.09200
N880        N  0.13040083  0.85999283  0.92166905    -0.34600
N881        N  0.13090395  0.88744473  0.92492078    -0.26800
C882        C  0.15625297  0.89704083  0.91779012    -0.02100
C883        C  0.17236382  0.87465921  0.90983999     0.06500
C884        C  0.15536931  0.85157537  0.91241883     0.04600
H885        H  0.16261368  0.91866203  0.91876776     0.09700
H886        H  0.16088685  0.83012653  0.90834119     0.08600
N887        N  0.06499096  0.56556468  0.04653081    -0.25800
N888        N  0.05536301  0.57778838  0.02507165    -0.33700
C889        C  0.03565593  0.56196962  0.01398402     0.02500
C890        C  0.03193249  0.53869812  0.02939219     0.08600
C891        C  0.05144316  0.54108847  0.04958866    -0.04500
H892        H  0.02553491  0.56679749  0.99550619     0.09200
H893        H  0.05580889  0.52597650  0.06489154     0.10400
Cu894      Cu  0.06553643  0.61707524  0.01348534     0.44200
Cu895      Cu  0.09680056  0.58456043  0.06817968     0.42000
Cu896      Cu  0.09826095  0.66160128  0.05869402     0.43900
N897        N  0.05520893  0.65806673  0.01644248    -0.33200
N898        N  0.06559893  0.67505359  0.03438344    -0.27500
C899        C  0.05195449  0.69959686  0.03263268    -0.03600
C900        C  0.03161035  0.69722707  0.01312995     0.08700
C901        C  0.03490972  0.67085665  0.00296061     0.02500
H902        H  0.05677188  0.71793185  0.04420809     0.10100
H903        H  0.02426605  0.66179022  0.98628036     0.09200
N904        N  0.13078703  0.63796335  0.07503422    -0.34600
N905        N  0.13009856  0.61054604  0.07851151    -0.26800
C906        C  0.15504346  0.60202491  0.08772478    -0.02100
C907        C  0.17222465  0.62499423  0.09004276     0.06500
C908        C  0.15624576  0.64743074  0.08198052     0.04600
H909        H  0.16041699  0.58057208  0.09195123     0.09700
H910        H  0.16276237  0.66899512  0.08081612     0.08600
N911        N  0.43355013  0.92487495  0.96768418    -0.25800
N912        N  0.44541729  0.90773753  0.98462768    -0.33700
C913        C  0.46640076  0.92053817  0.99709266     0.02500
C914        C  0.46853791  0.94718520  0.98735688     0.08600
C915        C  0.44687183  0.94961957  0.96914522    -0.04500
H916        H  0.47823780  0.91128389  0.01292462     0.09200
H917        H  0.44096279  0.96812592  0.95829118     0.10400
Cu918      Cu  0.43574290  0.86675303  0.98764801     0.44200
Cu919      Cu  0.39965674  0.91104048  0.94504594     0.42000
Cu920      Cu  0.40066830  0.83353294  0.93572994     0.43900
N921        N  0.44584158  0.82783562  0.97538040    -0.33200
N922        N  0.43430989  0.81500072  0.95513666    -0.27500
C923        C  0.44758795  0.79044386  0.95167117    -0.03600
C924        C  0.46896190  0.78870875  0.97020371     0.08700
C925        C  0.46663304  0.81248049  0.98514086     0.02500
H926        H  0.44169942  0.77474776  0.93738380     0.10100
H927        H  0.47811258  0.81775941  0.00275936     0.09200
N928        N  0.36737355  0.85977252  0.92595424    -0.34600
N929        N  0.36686368  0.88722642  0.92928053    -0.26800
C930        C  0.34158785  0.89684418  0.92192723    -0.02100
C931        C  0.32555226  0.87448402  0.91377442     0.06500
C932        C  0.34250446  0.85139979  0.91644943     0.04600
H933        H  0.33534308  0.91851305  0.92256694     0.09700
H934        H  0.33714646  0.83000915  0.91192910     0.08600
C935        C  0.24986453  0.62503230  0.12458455    -0.01000
C936        C  0.25006947  0.87495505  0.87538239    -0.01000
C937        C  0.29751730  0.87508068  0.90329194    -0.11800
C938        C  0.27499429  0.87508141  0.89244547    -0.13400
C939        C  0.20074020  0.62533874  0.09933602    -0.11800
C940        C  0.22386204  0.62521842  0.10900421    -0.13400
C941        C  0.20085824  0.87516022  0.90049313    -0.11800
C942        C  0.22399347  0.87516281  0.89085317    -0.13400
C943        C  0.27488478  0.62508807  0.10762836    -0.11800
C944        C  0.29742161  0.62492246  0.09679595    -0.13400
C945        C  0.25069203  0.57667144  0.15120357    -0.11800
C946        C  0.25032881  0.59943661  0.14078617    -0.13400
C947        C  0.50025886  0.64972583  0.36045479    -0.11800
C948        C  0.50063842  0.67251093  0.35008079    -0.13400
C949        C  0.25065476  0.67329076  0.15119819    -0.11800
C950        C  0.25039448  0.65046798  0.14094007    -0.13400
C951        C  0.50033103  0.59870414  0.36024122    -0.11800
C952        C  0.50060343  0.57591116  0.34992953    -0.13400
C953        C  0.45072106  0.62388015  0.40193102    -0.11800
C954        C  0.47382607  0.62391350  0.39223283    -0.13400
C955        C  0.02483731  0.62405730  0.39356131    -0.11800
C956        C  0.04739104  0.62433901  0.40435448    -0.13400
C957        C  0.02491678  0.87395664  0.60663807    -0.11800
C958        C  0.04745223  0.87411589  0.59582463    -0.12600
C959        C  0.45080664  0.87398462  0.59851237    -0.11800
C960        C  0.47392650  0.87385888  0.60818225    -0.13400
C961        C  0.25073977  0.90035524  0.85898402    -0.11800
C962        C  0.25115274  0.92319131  0.84875777    -0.13400
C963        C  0.25080950  0.82647804  0.84895240    -0.11800
C964        C  0.25058907  0.84930396  0.85925728    -0.13400
C965        C  0.00049295  0.89967077  0.63982299    -0.11800
C966        C  0.00073242  0.92250113  0.65011197    -0.13400
C967        C  0.00064840  0.84863212  0.64006331    -0.11800
C968        C  0.00106724  0.82581695  0.65032701    -0.13400
C969        C  0.64555077  0.10970114  0.76533591     0.03800
C970        C  0.64562315  0.13922646  0.76472149     0.03700
C971        C  0.62346769  0.15334722  0.75283579    -0.16800
C972        C  0.60131035  0.13880728  0.74136115     0.03800
C973        C  0.60119275  0.10923297  0.74203445     0.03700
C974        C  0.62327844  0.09513305  0.75411192    -0.16800
H975        H  0.62332546  0.07250685  0.75445322     0.05800
H976        H  0.62362897  0.17596789  0.75225279     0.05800
C977        C  0.89561686  0.10966898  0.73430669     0.03800
C978        C  0.89554692  0.13919264  0.73366516     0.03700
C979        C  0.87327994  0.15377431  0.74487659    -0.16800
C980        C  0.85119222  0.13968959  0.75696047     0.03800
C981        C  0.85129236  0.11011632  0.75763766     0.03700
C982        C  0.87344921  0.09556094  0.74618261    -0.16800
H983        H  0.87360270  0.07294051  0.74677817     0.05800
H984        H  0.87333438  0.17640032  0.74452343     0.05800
N985        N  0.94462069  0.18964532  0.70648149    -0.25800
N986        N  0.95877478  0.17891833  0.72632993    -0.33700
C987        C  0.94413447  0.15849742  0.73769188     0.02500
C988        C  0.91943796  0.15561874  0.72425421     0.08600
C989        C  0.91992918  0.17623333  0.70490890    -0.04500
H990        H  0.95064538  0.14755038  0.75525088     0.09200
H991        H  0.90336737  0.18147833  0.69128810     0.10400
Cu992      Cu  0.49852164  0.18941876  0.73553885     0.44200
Cu993      Cu  0.96181327  0.22246945  0.68481954     0.42000
Cu994      Cu  0.53980391  0.22338029  0.68870388     0.43900
N995        N  0.53899014  0.17902065  0.72969887    -0.33200
N996        N  0.55492616  0.19006013  0.71126700    -0.27500
C997        C  0.57958051  0.17647705  0.71146439    -0.03600
C998        C  0.57825676  0.15545831  0.73042452     0.08700
C999        C  0.55245386  0.15828460  0.74186862     0.02500
H1000       H  0.59732714  0.18185026  0.69930376     0.10100
H1001       H  0.54432580  0.14712213  0.75867534     0.09200
N1002       N  0.51492916  0.25607894  0.67443307    -0.34600
N1003       N  0.98729208  0.25563439  0.67300454    -0.26800
C1004       C  0.97827252  0.28061145  0.66431017    -0.02100
C1005       C  0.50114338  0.29754362  0.66020955     0.06500
C1006       C  0.52402163  0.28139767  0.66666142     0.04600
H1007       H  0.95659686  0.28611166  0.66147380     0.09700
H1008       H  0.54568842  0.28765205  0.66602055     0.08600
N1009       N  0.94451899  0.05842786  0.70811483    -0.25800
N1010       N  0.95848424  0.06902829  0.72816105    -0.33700
C1011       C  0.94387097  0.08964481  0.73927218     0.02500
C1012       C  0.91946816  0.09284374  0.72540689     0.08600
C1013       C  0.92004140  0.07217475  0.70612283    -0.04500
H1014       H  0.95023488  0.10062751  0.75686806     0.09200
H1015       H  0.90368034  0.06715622  0.69221111     0.10400
Cu1016     Cu  0.49820279  0.05846641  0.73772915     0.44200
Cu1017     Cu  0.96151703  0.02540495  0.68648620     0.42000
Cu1018     Cu  0.53912800  0.02436939  0.69033796     0.43900
N1019       N  0.53879561  0.06856598  0.73165864    -0.33200
N1020       N  0.55445643  0.05756140  0.71298238    -0.27500
C1021       C  0.57908218  0.07120396  0.71278471    -0.03600
C1022       C  0.57805077  0.09221800  0.73174786     0.08700
C1023       C  0.55246674  0.08931432  0.74363727     0.02500
H1024       H  0.59657589  0.06595609  0.70025311     0.10100
H1025       H  0.54457730  0.10058527  0.76049135     0.09200
N1026       N  0.51442545  0.99185446  0.67541772    -0.34600
N1027       N  0.98679500  0.99230263  0.67399744    -0.26800
C1028       C  0.97780954  0.46750349  0.66478413    -0.02100
C1029       C  0.50071787  0.45068424  0.66032407     0.06500
C1030       C  0.52356137  0.46672992  0.66713141     0.04600
H1031       H  0.95613989  0.46202281  0.66187286     0.09700
H1032       H  0.54523629  0.46051325  0.66641908     0.08600
N1033       N  0.69450150  0.19053491  0.79085381    -0.25800
N1034       N  0.70850210  0.17983287  0.77088079    -0.33700
C1035       C  0.69391282  0.15916447  0.75982864     0.02500
C1036       C  0.66947345  0.15604370  0.77364532     0.08600
C1037       C  0.67001111  0.17680739  0.79284467    -0.04500
H1038       H  0.70030945  0.14810960  0.74228546     0.09200
H1039       H  0.65361399  0.18190528  0.80669050     0.10400
Cu1040     Cu  0.74819825  0.19039007  0.76128481     0.44200
Cu1041     Cu  0.71150058  0.22364770  0.81238797     0.42000
Cu1042     Cu  0.78914600  0.22468433  0.80849643     0.43900
N1043       N  0.78879041  0.18033173  0.76732966    -0.33200
N1044       N  0.80448499  0.19143463  0.78592850    -0.27500
C1045       C  0.82912541  0.17781904  0.78612127    -0.03600
C1046       C  0.82806283  0.15671916  0.76724269     0.08700
C1047       C  0.80244395  0.15953999  0.75540569     0.02500
H1048       H  0.84664703  0.18313797  0.79859301     0.10100
H1049       H  0.79451825  0.14818764  0.73861586     0.09200
N1050       N  0.76444317  0.25717659  0.82347100    -0.34600
N1051       N  0.73681243  0.25673296  0.82490913    -0.26800
C1052       C  0.72784804  0.28151188  0.83419456    -0.02100
C1053       C  0.75076840  0.29831229  0.83868314     0.06500
C1054       C  0.77359660  0.28227501  0.83181488     0.04600
H1055       H  0.70618377  0.28699223  0.83713921     0.09700
H1056       H  0.79527511  0.28847928  0.83252947     0.08600
N1057       N  0.69465422  0.05932350  0.79262403    -0.25800
N1058       N  0.70876569  0.06993355  0.77269171    -0.33700
C1059       C  0.69410090  0.09029519  0.76125720     0.02500
C1060       C  0.66944180  0.09326388  0.77473889     0.08600
C1061       C  0.66997310  0.07275791  0.79418526    -0.04500
H1062       H  0.70057951  0.10116255  0.74364237     0.09200
H1063       H  0.65344963  0.06760748  0.80787819     0.10400
Cu1064     Cu  0.74852605  0.05942012  0.76350392     0.44200
Cu1065     Cu  0.71187610  0.02660458  0.81441728     0.42000
Cu1066     Cu  0.78982426  0.02571866  0.81054092     0.43900
N1067       N  0.78899526  0.06987201  0.76933907    -0.33200
N1068       N  0.80491044  0.05895314  0.78785464    -0.27500
C1069       C  0.82954580  0.07256870  0.78764600    -0.03600
C1070       C  0.82823570  0.09348236  0.76858559     0.08700
C1071       C  0.80246300  0.09055876  0.75709568     0.02500
H1072       H  0.84727190  0.06728564  0.79987044     0.10100
H1073       H  0.79435697  0.10163129  0.74022384     0.09200
N1074       N  0.76498673  0.99299976  0.82481080    -0.34600
N1075       N  0.73735068  0.99343292  0.82623860    -0.26800
C1076       C  0.72834036  0.46843239  0.83488283    -0.02100
C1077       C  0.75121792  0.45149664  0.83894933     0.06500
C1078       C  0.77408975  0.46766724  0.83253181     0.04600
H1079       H  0.70666615  0.46291329  0.83769398     0.09700
H1080       H  0.79575805  0.46141543  0.83314702     0.08600
C1081       C  0.49998343  0.37403859  0.62367915    -0.01000
C1082       C  0.73507325  0.03281394  0.50309870     0.03800
C1083       C  0.76469662  0.03280626  0.50282847     0.03700
C1084       C  0.77910248  0.51054055  0.51432210    -0.16800
C1085       C  0.76485521  0.48790750  0.52523828     0.03800
C1086       C  0.73533257  0.48791901  0.52550269     0.03700
C1087       C  0.72089109  0.51057716  0.51487205    -0.16800
H1088       H  0.69826428  0.51027706  0.51464391     0.05800
H1089       H  0.80172042  0.51021753  0.51368773     0.05800
C1090       C  0.73544212  0.28281192  0.49726561     0.03800
C1091       C  0.76506420  0.28283513  0.49754043     0.03700
C1092       C  0.77949675  0.26053990  0.48611478    -0.16800
C1093       C  0.76526558  0.23788928  0.47519670     0.03800
C1094       C  0.73574194  0.23791409  0.47486334     0.03700
C1095       C  0.72128740  0.26057482  0.48546912    -0.16800
H1096       H  0.69866028  0.26026894  0.48567466     0.05800
H1097       H  0.80211386  0.26022701  0.48677267     0.05800
N1098       N  0.68437839  0.18633681  0.45413942    -0.25800
N1099       N  0.69618123  0.17420708  0.47463318    -0.33700
C1100       C  0.71712007  0.18987674  0.48362770     0.02500
C1101       C  0.71928776  0.21310439  0.46791213     0.08600
C1102       C  0.69764108  0.21073628  0.44972618    -0.04500
H1103       H  0.72873969  0.18526265  0.50132440     0.09200
H1104       H  0.69152879  0.22594946  0.43506153     0.10400
Cu1105     Cu  0.68611398  0.13585831  0.48852339     0.44200
Cu1106     Cu  0.65039557  0.16727307  0.43573708     0.42000
Cu1107     Cu  0.64947425  0.09023881  0.44761355     0.43900
N1108       N  0.69520285  0.09461337  0.48719343    -0.33200
N1109       N  0.68321077  0.07699355  0.47077689    -0.27500
C1110       C  0.69632198  0.05220724  0.47301008    -0.03600
C1111       C  0.71796165  0.05505911  0.49119480     0.08700
C1112       C  0.71602492  0.08204535  0.50012470     0.02500
H1113       H  0.69033871  0.03342018  0.46263288     0.10100
H1114       H  0.72792221  0.09174903  0.51566567     0.09200
N1115       N  0.61668703  0.11335426  0.43094058    -0.34600
N1116       N  0.61713403  0.14067243  0.42673671    -0.26800
C1117       C  0.59228553  0.14861757  0.41685609    -0.02100
C1118       C  0.57541626  0.12538984  0.41484362     0.06500
C1119       C  0.59147964  0.10339273  0.42378764     0.04600
H1120       H  0.58688163  0.16981689  0.41163302     0.09700
H1121       H  0.58529357  0.08174211  0.42511591     0.08600
N1122       N  0.81484148  0.18547297  0.45229080    -0.25800
N1123       N  0.80510642  0.17414920  0.47414735    -0.33700
C1124       C  0.78544542  0.19048897  0.48459783     0.02500
C1125       C  0.78182519  0.21312005  0.46833154     0.08600
C1126       C  0.80138598  0.20985188  0.44829884    -0.04500
H1127       H  0.77530062  0.18647339  0.50323313     0.09200
H1128       H  0.80585632  0.22432014  0.43247487     0.10400
Cu1129     Cu  0.81502360  0.13529909  0.48725047     0.44200
Cu1130     Cu  0.84670331  0.16561759  0.43146617     0.42000
Cu1131     Cu  0.84829092  0.08911195  0.44394896     0.43900
N1132       N  0.80497513  0.09411561  0.48587697    -0.33200
N1133       N  0.81554653  0.07650327  0.46858437    -0.27500
C1134       C  0.80201345  0.05197979  0.47111040    -0.03600
C1135       C  0.78157268  0.05495319  0.49045192     0.08700
C1136       C  0.78469613  0.08172055  0.49973371     0.02500
H1137       H  0.80694994  0.03326010  0.46014764     0.10100
H1138       H  0.77396104  0.09135932  0.51606088     0.09200
N1139       N  0.88081827  0.11206915  0.42674073    -0.34600
N1140       N  0.88005781  0.13930704  0.42219185    -0.26800
C1141       C  0.90497079  0.14749407  0.41265140    -0.02100
C1142       C  0.92221531  0.12449784  0.41122662     0.06500
C1143       C  0.90630557  0.10237976  0.42016378     0.04600
H1144       H  0.91027674  0.16875992  0.40758414     0.09700
H1145       H  0.91288305  0.08090211  0.42215749     0.08600
N1146       N  0.68434267  0.43607431  0.54648589    -0.25800
N1147       N  0.69592604  0.42409794  0.52580032    -0.33700
C1148       C  0.71663629  0.43993462  0.51660368     0.02500
C1149       C  0.71889877  0.46308827  0.53240437     0.08600
C1150       C  0.69752832  0.46052684  0.55084715    -0.04500
H1151       H  0.72808708  0.43543970  0.49878057     0.09200
H1152       H  0.69157128  0.47561558  0.56568383     0.10400
Cu1153     Cu  0.68603808  0.38563978  0.51205211     0.44200
Cu1154     Cu  0.65070850  0.41674025  0.56515185     0.42000
Cu1155     Cu  0.64956956  0.33975014  0.55280617     0.43900
N1156       N  0.69537895  0.34444159  0.51335543    -0.33200
N1157       N  0.68341451  0.32671353  0.52968210    -0.27500
C1158       C  0.69661975  0.30198465  0.52738445    -0.03600
C1159       C  0.71828894  0.30498144  0.50925178     0.08700
C1160       C  0.71628047  0.33200166  0.50042568     0.02500
H1161       H  0.69066770  0.28313041  0.53766638     0.10100
H1162       H  0.72816330  0.34180870  0.48493657     0.09200
N1163       N  0.61679769  0.36289517  0.56947123    -0.34600
N1164       N  0.61736864  0.39017678  0.57387309    -0.26800
C1165       C  0.59251490  0.39819033  0.58367233    -0.02100
C1166       C  0.57550499  0.37505431  0.58542422     0.06500
C1167       C  0.59148925  0.35302559  0.57641725     0.04600
H1168       H  0.58720332  0.41938069  0.58901281     0.09700
H1169       H  0.58518680  0.33142087  0.57491556     0.08600
N1170       N  0.81485396  0.43577496  0.54782917    -0.25800
N1171       N  0.80488398  0.42431396  0.52612887    -0.33700
C1172       C  0.78495714  0.44047990  0.51589127     0.02500
C1173       C  0.78142259  0.46315224  0.53212430     0.08600
C1174       C  0.80130052  0.46008191  0.55190824    -0.04500
H1175       H  0.77464455  0.43637007  0.49735829     0.09200
H1176       H  0.80594446  0.47466429  0.56759476     0.10400
Cu1177     Cu  0.81498376  0.38558323  0.51283483     0.44200
Cu1178     Cu  0.84709521  0.41622208  0.56840352     0.42000
Cu1179     Cu  0.84832253  0.33970071  0.55635292     0.43900
N1180       N  0.80514123  0.34435419  0.51425859    -0.33200
N1181       N  0.81571343  0.32687164  0.53166817    -0.27500
C1182       C  0.80227750  0.30228666  0.52922331    -0.03600
C1183       C  0.78189649  0.30508246  0.50980626     0.08700
C1184       C  0.78495559  0.33180831  0.50039706     0.02500
H1185       H  0.80722770  0.28365286  0.54030936     0.10100
H1186       H  0.77421229  0.34132330  0.48400680     0.09200
N1187       N  0.88090912  0.36256114  0.57355243    -0.34600
N1188       N  0.88032740  0.38983630  0.57791503    -0.26800
C1189       C  0.90526260  0.39790634  0.58750793    -0.02100
C1190       C  0.92232399  0.37478161  0.58915954     0.06500
C1191       C  0.90628671  0.35272636  0.58029971     0.04600
H1192       H  0.91070896  0.41916771  0.59246001     0.09700
H1193       H  0.91270997  0.33118661  0.57846248     0.08600
C1194       C  0.89842595  0.38891287  0.26259298     0.03800
C1195       C  0.89853187  0.35938167  0.26183858     0.03700
C1196       C  0.87639218  0.34530098  0.24986624    -0.16800
C1197       C  0.85414020  0.35988978  0.23862042     0.03800
C1198       C  0.85406067  0.38944581  0.23933338     0.03700
C1199       C  0.87620502  0.40350922  0.25132164    -0.16800
H1200       H  0.87616234  0.42613188  0.25185380     0.05800
H1201       H  0.87645863  0.32267823  0.24934211     0.05800
C1202       C  0.64842937  0.36016865  0.23866532     0.03800
C1203       C  0.64854285  0.38970047  0.23942611     0.03700
C1204       C  0.62641655  0.40378192  0.25141627    -0.16800
C1205       C  0.60416087  0.38919761  0.26265899     0.03800
C1206       C  0.60406120  0.35964131  0.26192225     0.03700
C1207       C  0.62620089  0.34557457  0.24992879    -0.16800
H1208       H  0.62614869  0.32295224  0.24938647     0.05800
H1209       H  0.62649281  0.42640433  0.25194967     0.05800
N1210       N  0.94612361  0.43974630  0.29128946    -0.25800
N1211       N  0.96119008  0.42891038  0.27210726    -0.33700
C1212       C  0.94717475  0.40828633  0.26034904     0.02500
C1213       C  0.92191427  0.40540215  0.27281188     0.08600
C1214       C  0.92146568  0.42620190  0.29199341    -0.04500
H1215       H  0.95450510  0.39723876  0.24314161     0.09200
H1216       H  0.90428651  0.43149149  0.30489397     0.10400
Cu1217     Cu  0.00122693  0.43962562  0.26439565     0.44200
Cu1218     Cu  0.96215547  0.47285903  0.31342146     0.42000
Cu1219     Cu  0.54020361  0.47330531  0.31318285     0.43900
N1220       N  0.54138214  0.42926489  0.27195463    -0.33200
N1221       N  0.55640717  0.44017587  0.29112808    -0.27500
C1222       C  0.58106778  0.42662718  0.29191164    -0.03600
C1223       C  0.58065737  0.40574433  0.27279445     0.08700
C1224       C  0.55543569  0.40863009  0.26025933     0.02500
H1225       H  0.59821425  0.43194286  0.30484365     0.10100
H1226       H  0.54813932  0.39756155  0.24305306     0.09200
N1227       N  0.51486045  0.50611322  0.32631106    -0.34600
N1228       N  0.98718102  0.50592418  0.32642359    -0.26800
C1229       C  0.97796692  0.03098550  0.33474373    -0.02100
C1230       C  0.00078289  0.04767505  0.33995633     0.06500
C1231       C  0.52378987  0.03131101  0.33455252     0.04600
H1232       H  0.95622776  0.03669786  0.33659489     0.09700
H1233       H  0.54546060  0.03733287  0.33623383     0.08600
N1234       N  0.69613240  0.30940878  0.20985080    -0.25800
N1235       N  0.71117417  0.32013514  0.22910904    -0.33700
C1236       C  0.69714861  0.34070813  0.24093832     0.02500
C1237       C  0.67191461  0.34367791  0.22844014     0.08600
C1238       C  0.67148626  0.32297724  0.20916367    -0.04500
H1239       H  0.70445915  0.35167688  0.25820047     0.09200
H1240       H  0.65433078  0.31777377  0.19620178     0.10400
Cu1241     Cu  0.75121798  0.30938760  0.23680834     0.44200
Cu1242     Cu  0.71216492  0.27638838  0.18759199     0.42000
Cu1243     Cu  0.79017339  0.27599016  0.18780872     0.43900
N1244       N  0.79137961  0.31978831  0.22927558    -0.33200
N1245       N  0.80637073  0.30901140  0.21001057    -0.27500
C1246       C  0.83101528  0.32259007  0.20924618    -0.03600
C1247       C  0.83063341  0.34335138  0.22847824     0.08700
C1248       C  0.80544844  0.34036110  0.24105823     0.02500
H1249       H  0.84813042  0.31737779  0.19624157     0.10100
H1250       H  0.79818138  0.35133298  0.25833188     0.09200
N1251       N  0.76486644  0.24316044  0.17467006    -0.34600
N1252       N  0.73718775  0.24332836  0.17456777    -0.26800
C1253       C  0.72798963  0.21824349  0.16629231    -0.02100
C1254       C  0.75081630  0.20156018  0.16109737     0.06500
C1255       C  0.77381289  0.21795470  0.16646552     0.04600
H1256       H  0.70625381  0.21250491  0.16447496     0.09700
H1257       H  0.79548739  0.21194192  0.16480245     0.08600
N1258       N  0.94653393  0.30812249  0.28949153    -0.25800
N1259       N  0.96121766  0.31873689  0.26992059    -0.33700
C1260       C  0.94698430  0.33932140  0.25830209     0.02500
C1261       C  0.92207329  0.34247732  0.27134609     0.08600
C1262       C  0.92197913  0.32182830  0.29065706    -0.04500
H1263       H  0.95400700  0.35035734  0.24096348     0.09200
H1264       H  0.90514788  0.31683366  0.30406273     0.10400
Cu1265     Cu  0.00137131  0.30833922  0.26197681     0.44200
Cu1266     Cu  0.96280356  0.27519834  0.31177853     0.42000
Cu1267     Cu  0.54044928  0.27431953  0.31102983     0.43900
N1268       N  0.54152524  0.31873513  0.26992892    -0.33200
N1269       N  0.55644667  0.30773377  0.28914495    -0.27500
C1270       C  0.58095506  0.32153036  0.29035354    -0.03600
C1271       C  0.58058116  0.34264919  0.27148189     0.08700
C1272       C  0.55554884  0.33964611  0.25860908     0.02500
H1273       H  0.59796531  0.31627429  0.30346603     0.10100
H1274       H  0.54833755  0.35092380  0.24148690     0.09200
N1275       N  0.51522860  0.24176578  0.32501252    -0.34600
N1276       N  0.98756039  0.24215597  0.32534207    -0.26800
C1277       C  0.97823694  0.21737462  0.33429705    -0.02100
C1278       C  0.00097200  0.20063322  0.33972432     0.06500
C1279       C  0.52405506  0.21670444  0.33375149     0.04600
H1280       H  0.95647194  0.21185931  0.33639386     0.09700
H1281       H  0.54569602  0.21055474  0.33535907     0.08600
N1282       N  0.69652608  0.44103239  0.21185571    -0.25800
N1283       N  0.71123953  0.43032086  0.23135926    -0.33700
C1284       C  0.69702486  0.40968786  0.24291821     0.02500
C1285       C  0.67208228  0.40660622  0.22991317     0.08600
C1286       C  0.67195926  0.42734523  0.21068388    -0.04500
H1287       H  0.70407724  0.39857901  0.26020425     0.09200
H1288       H  0.65509866  0.43241365  0.19733463     0.10400
Cu1289     Cu  0.75138183  0.44070278  0.23931306     0.44200
Cu1290     Cu  0.71280606  0.47404191  0.18966665     0.42000
Cu1291     Cu  0.79048853  0.47493833  0.19044087     0.43900
N1292       N  0.79152268  0.43032849  0.23134836    -0.33200
N1293       N  0.80648031  0.44144066  0.21221776    -0.27500
C1294       C  0.83099956  0.42766584  0.21100183    -0.03600
C1295       C  0.83058901  0.40644374  0.22977085     0.08700
C1296       C  0.80552250  0.40935896  0.24259407     0.02500
H1297       H  0.84804189  0.43300552  0.19795869     0.10100
H1298       H  0.79827673  0.39799298  0.25964924     0.09200
N1299       N  0.76525352  0.50747342  0.17643619    -0.34600
N1300       N  0.73758425  0.50708195  0.17609390    -0.26800
C1301       C  0.72826867  0.03184527  0.16708048    -0.02100
C1302       C  0.75100918  0.04857444  0.16163003     0.06500
C1303       C  0.77408549  0.03251416  0.16765090     0.04600
H1304       H  0.70650569  0.03735391  0.16494924     0.09700
H1305       H  0.79572834  0.03865388  0.16603282     0.08600
C1306       C  0.99980626  0.12411269  0.37662741    -0.01000
C1307       C  0.98519001  0.21966957  0.00098975     0.03800
C1308       C  0.51479521  0.21966844  0.00122223     0.03700
C1309       C  0.52921247  0.24180683  0.98954218    -0.16800
C1310       C  0.51495808  0.26421800  0.97822771     0.03800
C1311       C  0.98543230  0.26420659  0.97799147     0.03700
C1312       C  0.97098915  0.24178434  0.98905889    -0.16800
H1313       H  0.94836102  0.24202258  0.98920700     0.05800
H1314       H  0.55183463  0.24205351  0.99004920     0.05800
C1315       C  0.98559168  0.46965746  0.99890214     0.03800
C1316       C  0.51519476  0.46966753  0.99863767     0.03700
C1317       C  0.52961725  0.99184832  0.01025548    -0.16800
C1318       C  0.51535719  0.01424737  0.02160140     0.03800
C1319       C  0.98582897  0.01418175  0.02192979     0.03700
C1320       C  0.97139637  0.99174296  0.01088138    -0.16800
H1321       H  0.94876772  0.99195361  0.01076825     0.05800
H1322       H  0.55223783  0.99211653  0.00971240     0.05800
N1323       N  0.93428132  0.06468228  0.04451314    -0.25800
N1324       N  0.94609270  0.07770814  0.02452796    -0.33700
C1325       C  0.96712821  0.06252849  0.01499108     0.02500
C1326       C  0.96931144  0.03864169  0.02978257     0.08600
C1327       C  0.94761374  0.04015687  0.04800333    -0.04500
H1328       H  0.97881958  0.06796521  0.99754575     0.09200
H1329       H  0.94152855  0.02430932  0.06206351     0.10400
Cu1330     Cu  0.93584735  0.11654027  0.01215619     0.44200
Cu1331     Cu  0.90026024  0.08296280  0.06360295     0.42000
Cu1332     Cu  0.89953368  0.16055598  0.05479656     0.43900
N1333       N  0.94523282  0.15758114  0.01513873    -0.33200
N1334       N  0.93330909  0.17462631  0.03212929    -0.27500
C1335       C  0.94650979  0.19943944  0.03069697    -0.03600
C1336       C  0.96815924  0.19713841  0.01245442     0.08700
C1337       C  0.96612922  0.17050617  0.00266637     0.02500
H1338       H  0.94054964  0.21788842  0.04161377     0.10100
H1339       H  0.97800095  0.16133357  0.98681539     0.09200
N1340       N  0.86672099  0.13676472  0.07055580    -0.34600
N1341       N  0.86707516  0.10927864  0.07366366    -0.26800
C1342       C  0.84220397  0.10099674  0.08325339    -0.02100
C1343       C  0.82542316  0.12418106  0.08621280     0.06500
C1344       C  0.84156273  0.14649025  0.07813254     0.04600
H1345       H  0.83672869  0.07960667  0.08764601     0.09700
H1346       H  0.83546256  0.16820554  0.07768536     0.08600
N1347       N  0.56579675  0.42471789  0.96558281    -0.25800
N1348       N  0.55539003  0.40785959  0.98362125    -0.33700
C1349       C  0.53519203  0.42080280  0.99710696     0.02500
C1350       C  0.53198074  0.44714045  0.98683799     0.08600
C1351       C  0.55226840  0.44933138  0.96726948    -0.04500
H1352       H  0.52452584  0.41185095  0.01382963     0.09200
H1353       H  0.55710920  0.46758130  0.95558531     0.10400
Cu1354     Cu  0.56548274  0.36681893  0.98662289     0.44200
Cu1355     Cu  0.59831559  0.41101382  0.94122821     0.42000
Cu1356     Cu  0.59724224  0.33393473  0.93225630     0.43900
N1357       N  0.55514332  0.32762583  0.97489100    -0.33200
N1358       N  0.56504669  0.31523540  0.95363029    -0.27500
C1359       C  0.55142107  0.29081362  0.95050376    -0.03600
C1360       C  0.53156333  0.28863916  0.97041764     0.08700
C1361       C  0.53515983  0.31198519  0.98575389     0.02500
H1362       H  0.55598744  0.27556983  0.93537051     0.10100
H1363       H  0.52483543  0.31693788  0.00409700     0.09200
N1364       N  0.63040080  0.35999279  0.92166884    -0.34600
N1365       N  0.63090395  0.38744470  0.92492059    -0.26800
C1366       C  0.65625299  0.39704077  0.91778994    -0.02100
C1367       C  0.67236381  0.37465913  0.90983983     0.06500
C1368       C  0.65536927  0.35157532  0.91241862     0.04600
H1369       H  0.66261375  0.41866195  0.91876754     0.09700
H1370       H  0.66088676  0.33012644  0.90834094     0.08600
N1371       N  0.56499117  0.06556463  0.04653081    -0.25800
N1372       N  0.55536309  0.07778828  0.02507169    -0.33700
C1373       C  0.53565594  0.06196947  0.01398424     0.02500
C1374       C  0.53193259  0.03869802  0.02939250     0.08600
C1375       C  0.55144342  0.04108842  0.04958883    -0.04500
H1376       H  0.52553479  0.06679725  0.99550642     0.09200
H1377       H  0.55580933  0.02597654  0.06489167     0.10400
Cu1378     Cu  0.56553627  0.11707525  0.01348534     0.44200
Cu1379     Cu  0.59680085  0.08456035  0.06817951     0.42000
Cu1380     Cu  0.59826081  0.16160134  0.05869403     0.43900
N1381       N  0.55520885  0.15806668  0.01644235    -0.33200
N1382       N  0.56559874  0.17505353  0.03438338    -0.27500
C1383       C  0.55195431  0.19959677  0.03263253    -0.03600
C1384       C  0.53161025  0.19722699  0.01312973     0.08700
C1385       C  0.53490968  0.17085658  0.00296039     0.02500
H1386       H  0.55677171  0.21793183  0.04420794     0.10100
H1387       H  0.52426607  0.16179014  0.98628010     0.09200
N1388       N  0.63078703  0.13796359  0.07503431    -0.34600
N1389       N  0.63009866  0.11054626  0.07851151    -0.26800
C1390       C  0.65504357  0.10202518  0.08772478    -0.02100
C1391       C  0.67222471  0.12499453  0.09004276     0.06500
C1392       C  0.65624578  0.14743103  0.08198057     0.04600
H1393       H  0.66041717  0.08057236  0.09195122     0.09700
H1394       H  0.66276241  0.16899540  0.08081615     0.08600
N1395       N  0.93355012  0.42487504  0.96768375    -0.25800
N1396       N  0.94541709  0.40773772  0.98462744    -0.33700
C1397       C  0.96640057  0.42053838  0.99709245     0.02500
C1398       C  0.96853782  0.44718533  0.98735650     0.08600
C1399       C  0.94687190  0.44961964  0.96914466    -0.04500
H1400       H  0.97823749  0.41128422  0.01292446     0.09200
H1401       H  0.94096302  0.46812587  0.95829044     0.10400
Cu1402     Cu  0.93574254  0.36675327  0.98764800     0.44200
Cu1403     Cu  0.89965679  0.41104055  0.94504535     0.42000
Cu1404     Cu  0.90066814  0.33353300  0.93572974     0.43900
N1405       N  0.94584131  0.32783574  0.97538043    -0.33200
N1406       N  0.93430971  0.31500083  0.95513666    -0.27500
C1407       C  0.94758782  0.29044398  0.95167118    -0.03600
C1408       C  0.96896175  0.28870892  0.97020375     0.08700
C1409       C  0.96663278  0.31248062  0.98514095     0.02500
H1410       H  0.94169940  0.27474794  0.93738380     0.10100
H1411       H  0.97811222  0.31775952  0.00275940     0.09200
N1412       N  0.86737343  0.35977259  0.92595382    -0.34600
N1413       N  0.86686362  0.38722651  0.92927995    -0.26800
C1414       C  0.84158778  0.39684426  0.92192667    -0.02100
C1415       C  0.82555214  0.37448409  0.91377399     0.06500
C1416       C  0.84250430  0.35139984  0.91644907     0.04600
H1417       H  0.83534304  0.41851314  0.92256630     0.09700
H1418       H  0.83714627  0.33000921  0.91192883     0.08600
C1419       C  0.74986454  0.12503232  0.12458456    -0.01000
C1420       C  0.75006935  0.37495509  0.87538199    -0.01000
C1421       C  0.79751722  0.37508075  0.90329144    -0.11800
C1422       C  0.77499419  0.37508146  0.89244502    -0.13400
C1423       C  0.70074025  0.12533905  0.09933601    -0.11800
C1424       C  0.72386207  0.12521869  0.10900422    -0.13400
C1425       C  0.70085818  0.37516014  0.90049286    -0.11800
C1426       C  0.72399336  0.37516285  0.89085280    -0.13400
C1427       C  0.77488477  0.12508808  0.10762838    -0.11800
C1428       C  0.79742160  0.12492241  0.09679596    -0.13400
C1429       C  0.75069181  0.07667133  0.15120347    -0.11800
C1430       C  0.75032867  0.09943651  0.14078605    -0.13400
C1431       C  0.00025884  0.14972589  0.36045471    -0.11800
C1432       C  0.00063854  0.17251092  0.35008061    -0.13400
C1433       C  0.75065509  0.17329062  0.15119840    -0.11800
C1434       C  0.75039464  0.15046789  0.14094021    -0.13400
C1435       C  0.00033064  0.09870415  0.36024138    -0.11800
C1436       C  0.00060290  0.07591106  0.34992988    -0.13400
C1437       C  0.95072104  0.12388065  0.40193109    -0.11800
C1438       C  0.97382603  0.12391393  0.39223289    -0.13400
C1439       C  0.52483718  0.12405736  0.39356141    -0.11800
C1440       C  0.54739093  0.12433898  0.40435455    -0.13400
C1441       C  0.52491675  0.37395672  0.60663835    -0.11800
C1442       C  0.54745225  0.37411597  0.59582498    -0.12600
C1443       C  0.95080667  0.37398448  0.59851264    -0.11800
C1444       C  0.97392652  0.37385880  0.60818254    -0.13400
C1445       C  0.75073970  0.40035526  0.85898363    -0.11800
C1446       C  0.75115262  0.42319130  0.84875733    -0.13400
C1447       C  0.75080935  0.32647807  0.84895203    -0.11800
C1448       C  0.75058891  0.34930401  0.85925687    -0.13400
C1449       C  0.50049281  0.39967067  0.63982334    -0.11800
C1450       C  0.50073228  0.42250101  0.65011238    -0.13400
C1451       C  0.50064839  0.34863203  0.64006347    -0.11800
C1452       C  0.50106714  0.32581688  0.65032719    -0.13400
C1453       C  0.64555085  0.60970141  0.76533576     0.03800
C1454       C  0.64562321  0.63922673  0.76472128     0.03700
C1455       C  0.62346775  0.65334746  0.75283557    -0.16800
C1456       C  0.60131043  0.63880747  0.74136096     0.03800
C1457       C  0.60119284  0.60923318  0.74203433     0.03700
C1458       C  0.62327852  0.59513329  0.75411184    -0.16800
H1459       H  0.62332554  0.57250709  0.75445322     0.05800
H1460       H  0.62362900  0.67596810  0.75225255     0.05800
C1461       C  0.89561694  0.60966912  0.73430669     0.03800
C1462       C  0.89554699  0.63919278  0.73366514     0.03700
C1463       C  0.87328002  0.65377444  0.74487657    -0.16800
C1464       C  0.85119228  0.63968972  0.75696043     0.03800
C1465       C  0.85129244  0.61011645  0.75763767     0.03700
C1466       C  0.87344930  0.59556107  0.74618263    -0.16800
H1467       H  0.87360279  0.57294064  0.74677818     0.05800
H1468       H  0.87333446  0.67640045  0.74452340     0.05800
N1469       N  0.94462067  0.68964548  0.70648144    -0.25800
N1470       N  0.95877477  0.67891856  0.72632990    -0.33700
C1471       C  0.94413451  0.65849763  0.73769183     0.02500
C1472       C  0.91943800  0.65561887  0.72425415     0.08600
C1473       C  0.91992919  0.67623341  0.70490880    -0.04500
H1474       H  0.95064548  0.64755063  0.75525085     0.09200
H1475       H  0.90336742  0.68147833  0.69128796     0.10400
Cu1476     Cu  0.49852161  0.68941890  0.73553885     0.44200
Cu1477     Cu  0.96181337  0.72246944  0.68481951     0.42000
Cu1478     Cu  0.53980380  0.72338043  0.68870386     0.43900
N1479       N  0.53899013  0.67902080  0.72969882    -0.33200
N1480       N  0.55492612  0.69006028  0.71126692    -0.27500
C1481       C  0.57958048  0.67647723  0.71146428    -0.03600
C1482       C  0.57825680  0.65545849  0.73042440     0.08700
C1483       C  0.55245394  0.65828483  0.74186860     0.02500
H1484       H  0.59732712  0.68185044  0.69930358     0.10100
H1485       H  0.54432597  0.64712238  0.75867539     0.09200
N1486       N  0.51492909  0.75607903  0.67443295    -0.34600
N1487       N  0.98729205  0.75563453  0.67300448    -0.26800
C1488       C  0.97827249  0.78061159  0.66431002    -0.02100
C1489       C  0.50114340  0.79754369  0.66020932     0.06500
C1490       C  0.52402164  0.78139773  0.66666122     0.04600
H1491       H  0.95659689  0.78611183  0.66147364     0.09700
H1492       H  0.54568837  0.78765204  0.66602039     0.08600
N1493       N  0.94451910  0.55842796  0.70811495    -0.25800
N1494       N  0.95848432  0.56902840  0.72816117    -0.33700
C1495       C  0.94387105  0.58964497  0.73927223     0.02500
C1496       C  0.91946828  0.59284391  0.72540691     0.08600
C1497       C  0.92004152  0.57217487  0.70612288    -0.04500
H1498       H  0.95023495  0.60062777  0.75686814     0.09200
H1499       H  0.90368053  0.56715633  0.69221116     0.10400
Cu1500     Cu  0.49820275  0.55846655  0.73772916     0.44200
Cu1501     Cu  0.96151714  0.52540510  0.68648622     0.42000
Cu1502     Cu  0.53912810  0.52436933  0.69033815     0.43900
N1503       N  0.53879565  0.56856612  0.73165863    -0.33200
N1504       N  0.55445650  0.55756150  0.71298240    -0.27500
C1505       C  0.57908224  0.57120407  0.71278473    -0.03600
C1506       C  0.57805083  0.59221815  0.73174784     0.08700
C1507       C  0.55246678  0.58931448  0.74363723     0.02500
H1508       H  0.59657600  0.56595619  0.70025316     0.10100
H1509       H  0.54457729  0.60058548  0.76049127     0.09200
N1510       N  0.51442546  0.49185444  0.67541796    -0.34600
N1511       N  0.98679503  0.49230269  0.67399761    -0.26800
C1512       C  0.97780959  0.96750344  0.66478388    -0.02100
C1513       C  0.50071792  0.95068432  0.66032369     0.06500
C1514       C  0.52356144  0.96672998  0.66713107     0.04600
H1515       H  0.95613988  0.96202266  0.66187262     0.09700
H1516       H  0.54523624  0.96051336  0.66641873     0.08600
N1517       N  0.69450152  0.69053517  0.79085357    -0.25800
N1518       N  0.70850206  0.67983320  0.77088046    -0.33700
C1519       C  0.69391281  0.65916475  0.75982835     0.02500
C1520       C  0.66947348  0.65604400  0.77364508     0.08600
C1521       C  0.67001116  0.67680762  0.79284447    -0.04500
H1522       H  0.70030941  0.64810982  0.74228522     0.09200
H1523       H  0.65361408  0.68190542  0.80669039     0.10400
Cu1524     Cu  0.74819822  0.69039040  0.76128462     0.44200
Cu1525     Cu  0.71150069  0.72364782  0.81238794     0.42000
Cu1526     Cu  0.78914611  0.72468446  0.80849643     0.43900
N1527       N  0.78879041  0.68033188  0.76732962    -0.33200
N1528       N  0.80448505  0.69143475  0.78592843    -0.27500
C1529       C  0.82912549  0.67781917  0.78612113    -0.03600
C1530       C  0.82806287  0.65671934  0.76724254     0.08700
C1531       C  0.80244396  0.65954016  0.75540558     0.02500
H1532       H  0.84664715  0.68313803  0.79859284     0.10100
H1533       H  0.79451823  0.64818785  0.73861576     0.09200
N1534       N  0.76444330  0.75717664  0.82347117    -0.34600
N1535       N  0.73681254  0.75673305  0.82490915    -0.26800
C1536       C  0.72784814  0.78151195  0.83419460    -0.02100
C1537       C  0.75076850  0.79831230  0.83868336     0.06500
C1538       C  0.77359672  0.78227501  0.83181521     0.04600
H1539       H  0.70618383  0.78699231  0.83713919     0.09700
H1540       H  0.79527523  0.78847928  0.83252995     0.08600
N1541       N  0.69465423  0.55932361  0.79262365    -0.25800
N1542       N  0.70876571  0.56993372  0.77269136    -0.33700
C1543       C  0.69410094  0.59029545  0.76125698     0.02500
C1544       C  0.66944186  0.59326414  0.77473871     0.08600
C1545       C  0.66997315  0.57275807  0.79418499    -0.04500
H1546       H  0.70057954  0.60116289  0.74364217     0.09200
H1547       H  0.65344970  0.56760759  0.80787794     0.10400
Cu1548     Cu  0.74852611  0.55942027  0.76350352     0.44200
Cu1549     Cu  0.71187602  0.52660468  0.81441688     0.42000
Cu1550     Cu  0.78982417  0.52571861  0.81054052     0.43900
N1551       N  0.78899530  0.56987215  0.76933881    -0.33200
N1552       N  0.80491042  0.55895316  0.78785435    -0.27500
C1553       C  0.82954582  0.57256869  0.78764582    -0.03600
C1554       C  0.82823575  0.59348249  0.76858552     0.08700
C1555       C  0.80246308  0.59055895  0.75709550     0.02500
H1556       H  0.84727184  0.56728553  0.79987018     0.10100
H1557       H  0.79435715  0.60163149  0.74022371     0.09200
N1558       N  0.76498663  0.49299975  0.82481038    -0.34600
N1559       N  0.73735056  0.49343289  0.82623804    -0.26800
C1560       C  0.72834047  0.96843242  0.83488338    -0.02100
C1561       C  0.75121804  0.95149664  0.83894978     0.06500
C1562       C  0.77408986  0.96766722  0.83253219     0.04600
H1563       H  0.70666628  0.96291333  0.83769450     0.09700
H1564       H  0.79575813  0.96141540  0.83314736     0.08600
C1565       C  0.49998350  0.87403864  0.62367888    -0.01000
C1566       C  0.73507322  0.53281388  0.50309905     0.03800
C1567       C  0.76469659  0.53280619  0.50282862     0.03700
C1568       C  0.77910242  0.01054061  0.51432205    -0.16800
C1569       C  0.76485513  0.98790749  0.52523804     0.03800
C1570       C  0.73533247  0.98791901  0.52550230     0.03700
C1571       C  0.72089109  0.01057721  0.51487164    -0.16800
H1572       H  0.69826419  0.01027713  0.51464340     0.05800
H1573       H  0.80172044  0.01021761  0.51368787     0.05800
C1574       C  0.73544232  0.78281185  0.49726521     0.03800
C1575       C  0.76506440  0.78283518  0.49753981     0.03700
C1576       C  0.77949697  0.76053996  0.48611418    -0.16800
C1577       C  0.76526582  0.73788922  0.47519631     0.03800
C1578       C  0.73574217  0.73791396  0.47486304     0.03700
C1579       C  0.72128760  0.76057467  0.48546886    -0.16800
H1580       H  0.69866058  0.76026870  0.48567452     0.05800
H1581       H  0.80211410  0.76022714  0.48677198     0.05800
N1582       N  0.68437862  0.68633653  0.45413938    -0.25800
N1583       N  0.69618148  0.67420691  0.47463319    -0.33700
C1584       C  0.71712032  0.68987665  0.48362765     0.02500
C1585       C  0.71928800  0.71310422  0.46791195     0.08600
C1586       C  0.69764128  0.71073599  0.44972602    -0.04500
H1587       H  0.72873989  0.68526272  0.50132437     0.09200
H1588       H  0.69152894  0.72594906  0.43506133     0.10400
Cu1589     Cu  0.68611410  0.63585824  0.48852359     0.44200
Cu1590     Cu  0.65039570  0.66727278  0.43573710     0.42000
Cu1591     Cu  0.64947389  0.59023854  0.44761431     0.43900
N1592       N  0.69520282  0.59461327  0.48719373    -0.33200
N1593       N  0.68321057  0.57699336  0.47077740    -0.27500
C1594       C  0.69632170  0.55220702  0.47301066    -0.03600
C1595       C  0.71796152  0.55505898  0.49119519     0.08700
C1596       C  0.71602492  0.58204528  0.50012496     0.02500
H1597       H  0.69033830  0.53341988  0.46263363     0.10100
H1598       H  0.72792227  0.59174902  0.51566579     0.09200
N1599       N  0.61668681  0.61335404  0.43094112    -0.34600
N1600       N  0.61713405  0.64067216  0.42673693    -0.26800
C1601       C  0.59228570  0.64861737  0.41685605    -0.02100
C1602       C  0.57541631  0.62538974  0.41484365     0.06500
C1603       C  0.59147940  0.60339263  0.42378806     0.04600
H1604       H  0.58688201  0.66981668  0.41163278     0.09700
H1605       H  0.58529312  0.58174204  0.42511649     0.08600
N1606       N  0.81484171  0.68547278  0.45229060    -0.25800
N1607       N  0.80510653  0.67414902  0.47414711    -0.33700
C1608       C  0.78544556  0.69048885  0.48459752     0.02500
C1609       C  0.78182549  0.71311997  0.46833128     0.08600
C1610       C  0.80138634  0.70985175  0.44829862    -0.04500
H1611       H  0.77530065  0.68647328  0.50323285     0.09200
H1612       H  0.80585674  0.72431993  0.43247467     0.10400
Cu1613     Cu  0.81502370  0.63529896  0.48725028     0.44200
Cu1614     Cu  0.84670342  0.66561730  0.43146598     0.42000
Cu1615     Cu  0.84829081  0.58911165  0.44394876     0.43900
N1616       N  0.80497506  0.59411547  0.48587676    -0.33200
N1617       N  0.81554639  0.57650307  0.46858421    -0.27500
C1618       C  0.80201328  0.55197959  0.47111031    -0.03600
C1619       C  0.78157259  0.55495308  0.49045190     0.08700
C1620       C  0.78469609  0.58172047  0.49973362     0.02500
H1621       H  0.80694973  0.53325992  0.46014762     0.10100
H1622       H  0.77396118  0.59135925  0.51606078     0.09200
N1623       N  0.88081824  0.61206873  0.42674055    -0.34600
N1624       N  0.88005783  0.63930661  0.42219175    -0.26800
C1625       C  0.90497080  0.64749365  0.41265129    -0.02100
C1626       C  0.92221527  0.62449738  0.41122642     0.06500
C1627       C  0.90630552  0.60237929  0.42016356     0.04600
H1628       H  0.91027670  0.66875943  0.40758412     0.09700
H1629       H  0.91288297  0.58090167  0.42215722     0.08600
N1630       N  0.68434246  0.93607431  0.54648524    -0.25800
N1631       N  0.69592594  0.92409793  0.52579975    -0.33700
C1632       C  0.71663620  0.93993463  0.51660317     0.02500
C1633       C  0.71889860  0.96308827  0.53240388     0.08600
C1634       C  0.69752805  0.96052688  0.55084656    -0.04500
H1635       H  0.72808707  0.93543972  0.49878013     0.09200
H1636       H  0.69157094  0.97561553  0.56568320     0.10400
Cu1637     Cu  0.68603818  0.88563970  0.51205153     0.44200
Cu1638     Cu  0.65070838  0.91674017  0.56515108     0.42000
Cu1639     Cu  0.64956964  0.83975008  0.55280559     0.43900
N1640       N  0.69537912  0.84444152  0.51335497    -0.33200
N1641       N  0.68341461  0.82671346  0.52968157    -0.27500
C1642       C  0.69661986  0.80198457  0.52738399    -0.03600
C1643       C  0.71828914  0.80498137  0.50925139     0.08700
C1644       C  0.71628071  0.83200161  0.50042531     0.02500
H1645       H  0.69066778  0.78313038  0.53766590     0.10100
H1646       H  0.72816355  0.84180865  0.48493625     0.09200
N1647       N  0.61679774  0.86289503  0.56947078    -0.34600
N1648       N  0.61736867  0.89017664  0.57387256    -0.26800
C1649       C  0.59251496  0.89819022  0.58367189    -0.02100
C1650       C  0.57550504  0.87505422  0.58542384     0.06500
C1651       C  0.59148929  0.85302545  0.57641687     0.04600
H1652       H  0.58720343  0.91938058  0.58901230     0.09700
H1653       H  0.58518687  0.83142083  0.57491520     0.08600
N1654       N  0.81485399  0.93577495  0.54782874    -0.25800
N1655       N  0.80488412  0.92431405  0.52612835    -0.33700
C1656       C  0.78495719  0.94047993  0.51589085     0.02500
C1657       C  0.78142250  0.96315217  0.53212399     0.08600
C1658       C  0.80130042  0.96008180  0.55190794    -0.04500
H1659       H  0.77464457  0.93637010  0.49735785     0.09200
H1660       H  0.80594428  0.97466406  0.56759456     0.10400
Cu1661     Cu  0.81498387  0.88558335  0.51283424     0.44200
Cu1662     Cu  0.84709513  0.91622202  0.56840313     0.42000
Cu1663     Cu  0.84832263  0.83970085  0.55635234     0.43900
N1664       N  0.80514135  0.84435429  0.51425796    -0.33200
N1665       N  0.81571355  0.82687175  0.53166755    -0.27500
C1666       C  0.80227767  0.80228675  0.52922265    -0.03600
C1667       C  0.78189671  0.80508253  0.50980557     0.08700
C1668       C  0.78495576  0.83180839  0.50039635     0.02500
H1669       H  0.80722787  0.78365291  0.54030873     0.10100
H1670       H  0.77421253  0.84132328  0.48400615     0.09200
N1671       N  0.88090919  0.86256126  0.57355195    -0.34600
N1672       N  0.88032740  0.88983640  0.57791465    -0.26800
C1673       C  0.90526256  0.89790647  0.58750766    -0.02100
C1674       C  0.92232398  0.87478176  0.58915920     0.06500
C1675       C  0.90628680  0.85272651  0.58029920     0.04600
H1676       H  0.91070886  0.91916781  0.59245986     0.09700
H1677       H  0.91271010  0.83118679  0.57846190     0.08600
C1678       C  0.89842311  0.88891278  0.26259597     0.03800
C1679       C  0.89852897  0.85938160  0.26184166     0.03700
C1680       C  0.87638927  0.84530090  0.24986936    -0.16800
C1681       C  0.85413745  0.85988970  0.23862327     0.03800
C1682       C  0.85405792  0.88944573  0.23933616     0.03700
C1683       C  0.87620220  0.90350914  0.25132458    -0.16800
H1684       H  0.87615960  0.92613180  0.25185663     0.05800
H1685       H  0.87645576  0.82267816  0.24934524     0.05800
C1686       C  0.64842650  0.86016880  0.23866266     0.03800
C1687       C  0.64853996  0.88970061  0.23942335     0.03700
C1688       C  0.62641365  0.90378206  0.25141347    -0.16800
C1689       C  0.60415804  0.88919778  0.26265637     0.03800
C1690       C  0.60405839  0.85964149  0.26191972     0.03700
C1691       C  0.62619804  0.84557473  0.24992619    -0.16800
H1692       H  0.62614598  0.82295239  0.24938408     0.05800
H1693       H  0.62648993  0.92640447  0.25194690     0.05800
N1694       N  0.94612156  0.93974612  0.29129141    -0.25800
N1695       N  0.96118745  0.92891031  0.27210874    -0.33700
C1696       C  0.94717176  0.90828627  0.26035084     0.02500
C1697       C  0.92191168  0.90540200  0.27281440     0.08600
C1698       C  0.92146364  0.92620172  0.29199595    -0.04500
H1699       H  0.95450152  0.89723878  0.24314316     0.09200
H1700       H  0.90428481  0.93149135  0.30489691     0.10400
Cu1701     Cu  0.00122407  0.93962574  0.26439602     0.44200
Cu1702     Cu  0.96215391  0.97285892  0.31342302     0.42000
Cu1703     Cu  0.54020206  0.97330523  0.31318206     0.43900
N1704       N  0.54137945  0.92926499  0.27195369    -0.33200
N1705       N  0.55640506  0.94017593  0.29112675    -0.27500
C1706       C  0.58106574  0.92662731  0.29190959    -0.03600
C1707       C  0.58065481  0.90574456  0.27279232     0.08700
C1708       C  0.55543270  0.90863026  0.26025791     0.02500
H1709       H  0.59821254  0.93194289  0.30484118     0.10100
H1710       H  0.54813579  0.89756174  0.24305188     0.09200
N1711       N  0.51485927  0.00611310  0.32631111    -0.34600
N1712       N  0.98717984  0.00592402  0.32642452    -0.26800
C1713       C  0.97796788  0.53098567  0.33474256    -0.02100
C1714       C  0.00078370  0.54767517  0.33995589     0.06500
C1715       C  0.52379078  0.53131113  0.33455275     0.04600
H1716       H  0.95622864  0.53669809  0.33659311     0.09700
H1717       H  0.54546145  0.53733300  0.33623472     0.08600
N1718       N  0.69613023  0.80940883  0.20984942    -0.25800
N1719       N  0.71117152  0.82013526  0.22910794    -0.33700
C1720       C  0.69714563  0.84070825  0.24093687     0.02500
C1721       C  0.67191199  0.84367806  0.22843801     0.08600
C1722       C  0.67148412  0.82297731  0.20916163    -0.04500
H1723       H  0.70445568  0.85167696  0.25819919     0.09200
H1724       H  0.65432899  0.81777384  0.19619930     0.10400
Cu1725     Cu  0.75121514  0.80938774  0.23680834     0.44200
Cu1726     Cu  0.71216337  0.77638849  0.18759098     0.42000
Cu1727     Cu  0.79017184  0.77599032  0.18780972     0.43900
N1728       N  0.79137708  0.81978822  0.22927688    -0.33200
N1729       N  0.80636866  0.80901142  0.21001214    -0.27500
C1730       C  0.83101327  0.82259007  0.20924841    -0.03600
C1731       C  0.83063091  0.84335127  0.22848060     0.08700
C1732       C  0.80544563  0.84036090  0.24106000     0.02500
H1733       H  0.84812870  0.81737787  0.19624423     0.10100
H1734       H  0.79817809  0.85133274  0.25833353     0.09200
N1735       N  0.76486525  0.74316066  0.17467027    -0.34600
N1736       N  0.73718658  0.74332856  0.17456722    -0.26800
C1737       C  0.72798873  0.71824366  0.16629152    -0.02100
C1738       C  0.75081558  0.70156037  0.16109717     0.06500
C1739       C  0.77381199  0.71795490  0.16646602     0.04600
H1740       H  0.70625303  0.71250504  0.16447367     0.09700
H1741       H  0.79548654  0.71194216  0.16480365     0.08600
N1742       N  0.94653189  0.80812259  0.28949355    -0.25800
N1743       N  0.96121504  0.81873698  0.26992221    -0.33700
C1744       C  0.94698129  0.83932140  0.25830401     0.02500
C1745       C  0.92207065  0.84247731  0.27134864     0.08600
C1746       C  0.92197708  0.82182834  0.29065967    -0.04500
H1747       H  0.95400347  0.85035731  0.24096518     0.09200
H1748       H  0.90514621  0.81683371  0.30406575     0.10400
Cu1749     Cu  0.00136849  0.80833936  0.26197739     0.44200
Cu1750     Cu  0.96280223  0.77519847  0.31178011     0.42000
Cu1751     Cu  0.54044810  0.77431964  0.31102905     0.43900
N1752       N  0.54152261  0.81873533  0.26992820    -0.33200
N1753       N  0.55644474  0.80773391  0.28914372    -0.27500
C1754       C  0.58095316  0.82153050  0.29035158    -0.03600
C1755       C  0.58057863  0.84264937  0.27147998     0.08700
C1756       C  0.55554585  0.83964631  0.25860793     0.02500
H1757       H  0.59796391  0.81627439  0.30346354     0.10100
H1758       H  0.54833401  0.85092402  0.24148595     0.09200
N1759       N  0.51522771  0.74176594  0.32501249    -0.34600
N1760       N  0.98755964  0.74215611  0.32534285    -0.26800
C1761       C  0.97823646  0.71737474  0.33429803    -0.02100
C1762       C  0.00097166  0.70063327  0.33972455     0.06500
C1763       C  0.52405445  0.71670456  0.33375112     0.04600
H1764       H  0.95647150  0.71185946  0.33639543     0.09700
H1765       H  0.54569546  0.71055485  0.33535792     0.08600
N1766       N  0.69652404  0.94103233  0.21185390    -0.25800
N1767       N  0.71123691  0.93032091  0.23135789    -0.33700
C1768       C  0.69702188  0.90968798  0.24291651     0.02500
C1769       C  0.67207966  0.90660629  0.22991085     0.08600
C1770       C  0.67195725  0.92734522  0.21068147    -0.04500
H1771       H  0.70407377  0.89857914  0.26020281     0.09200
H1772       H  0.65509702  0.93241365  0.19733175     0.10400
Cu1773     Cu  0.75137900  0.94070272  0.23931268     0.44200
Cu1774     Cu  0.71280473  0.97404167  0.18966524     0.42000
Cu1775     Cu  0.79048735  0.97493828  0.19044185     0.43900
N1776       N  0.79152009  0.93032836  0.23134932    -0.33200
N1777       N  0.80647836  0.94144055  0.21221919    -0.27500
C1778       C  0.83099765  0.92766578  0.21100401    -0.03600
C1779       C  0.83058652  0.90644367  0.22977301     0.08700
C1780       C  0.80551952  0.90935879  0.24259544     0.02500
H1781       H  0.84804046  0.93300554  0.19796139     0.10100
H1782       H  0.79827318  0.89799279  0.25965031     0.09200
N1783       N  0.76525262  0.00747327  0.17643643    -0.34600
N1784       N  0.73758336  0.00708175  0.17609332    -0.26800
C1785       C  0.72826932  0.53184547  0.16708134    -0.02100
C1786       C  0.75100967  0.54857459  0.16163019     0.06500
C1787       C  0.77408615  0.53251427  0.16765036     0.04600
H1788       H  0.70650625  0.53735418  0.16495076     0.09700
H1789       H  0.79572899  0.53865395  0.16603160     0.08600
C1790       C  0.99980636  0.62411256  0.37662738    -0.01000
C1791       C  0.98519012  0.71966955  0.00098987     0.03800
C1792       C  0.51479528  0.71966838  0.00122241     0.03700
C1793       C  0.52921257  0.74180676  0.98954238    -0.16800
C1794       C  0.51495819  0.76421794  0.97822795     0.03800
C1795       C  0.98543242  0.76420655  0.97799152     0.03700
C1796       C  0.97098926  0.74178428  0.98905891    -0.16800
H1797       H  0.94836113  0.74202249  0.98920694     0.05800
H1798       H  0.55183473  0.74205344  0.99004942     0.05800
C1799       C  0.98559176  0.96965745  0.99890239     0.03800
C1800       C  0.51519488  0.96966743  0.99863805     0.03700
C1801       C  0.52961711  0.49184843  0.01025509    -0.16800
C1802       C  0.51535704  0.51424738  0.02160113     0.03800
C1803       C  0.98582885  0.51418173  0.02192957     0.03700
C1804       C  0.97139626  0.49174294  0.01088117    -0.16800
H1805       H  0.94876761  0.49195355  0.01076804     0.05800
H1806       H  0.55223768  0.49211672  0.00971195     0.05800
N1807       N  0.93428118  0.56468216  0.04451310    -0.25800
N1808       N  0.94609261  0.57770810  0.02452800    -0.33700
C1809       C  0.96712813  0.56252852  0.01499108     0.02500
C1810       C  0.96931130  0.53864162  0.02978242     0.08600
C1811       C  0.94761352  0.54015666  0.04800314    -0.04500
H1812       H  0.97881956  0.56796540  0.99754580     0.09200
H1813       H  0.94152830  0.52430911  0.06206313     0.10400
Cu1814     Cu  0.93584726  0.61654024  0.01215638     0.44200
Cu1815     Cu  0.90026015  0.58296271  0.06360295     0.42000
Cu1816     Cu  0.89953396  0.66055589  0.05479697     0.43900
N1817       N  0.94523291  0.65758107  0.01513893    -0.33200
N1818       N  0.93330922  0.67462625  0.03212950    -0.27500
C1819       C  0.94650993  0.69943937  0.03069717    -0.03600
C1820       C  0.96815937  0.69713837  0.01245459     0.08700
C1821       C  0.96612932  0.67050610  0.00266656     0.02500
H1822       H  0.94054982  0.71788833  0.04161405     0.10100
H1823       H  0.97800102  0.66133350  0.98681557     0.09200
N1824       N  0.86672113  0.63676466  0.07055617    -0.34600
N1825       N  0.86707515  0.60927855  0.07366383    -0.26800
C1826       C  0.84220387  0.60099666  0.08325339    -0.02100
C1827       C  0.82542316  0.62418105  0.08621286     0.06500
C1828       C  0.84156288  0.64649023  0.07813288     0.04600
H1829       H  0.83672847  0.57960659  0.08764583     0.09700
H1830       H  0.83546276  0.66820557  0.07768584     0.08600
N1831       N  0.56579672  0.92471760  0.96558319    -0.25800
N1832       N  0.55539020  0.90785942  0.98362184    -0.33700
C1833       C  0.53519232  0.92080275  0.99710765     0.02500
C1834       C  0.53198085  0.94714029  0.98683844     0.08600
C1835       C  0.55226836  0.94933110  0.96726978    -0.04500
H1836       H  0.52452628  0.91185106  0.01383044     0.09200
H1837       H  0.55710909  0.96758090  0.95558547     0.10400
Cu1838     Cu  0.56548286  0.86681870  0.98662349     0.44200
Cu1839     Cu  0.59831549  0.91101373  0.94122842     0.42000
Cu1840     Cu  0.59724230  0.83393483  0.93225653     0.43900
N1841       N  0.55514357  0.82762565  0.97489150    -0.33200
N1842       N  0.56504680  0.81523537  0.95363065    -0.27500
C1843       C  0.55142103  0.79081368  0.95050400    -0.03600
C1844       C  0.53156342  0.78863913  0.97041797     0.08700
C1845       C  0.53516005  0.81198503  0.98575438     0.02500
H1846       H  0.55598722  0.77556997  0.93537063     0.10100
H1847       H  0.52483574  0.81693765  0.00409748     0.09200
N1848       N  0.63040083  0.85999285  0.92166905    -0.34600
N1849       N  0.63090394  0.88744475  0.92492081    -0.26800
C1850       C  0.65625297  0.89704084  0.91779014    -0.02100
C1851       C  0.67236380  0.87465921  0.90983998     0.06500
C1852       C  0.65536929  0.85157538  0.91241879     0.04600
H1853       H  0.66261372  0.91866203  0.91876779     0.09700
H1854       H  0.66088679  0.83012652  0.90834112     0.08600
N1855       N  0.56499095  0.56556458  0.04653085    -0.25800
N1856       N  0.55536302  0.57778824  0.02507166    -0.33700
C1857       C  0.53565597  0.56196942  0.01398403     0.02500
C1858       C  0.53193245  0.53869800  0.02939229     0.08600
C1859       C  0.55144316  0.54108837  0.04958873    -0.04500
H1860       H  0.52553494  0.56679721  0.99550615     0.09200
H1861       H  0.55580893  0.52597640  0.06489159     0.10400
Cu1862     Cu  0.56553637  0.61707518  0.01348534     0.44200
Cu1863     Cu  0.59680070  0.58456024  0.06817968     0.42000
Cu1864     Cu  0.59826093  0.66160125  0.05869403     0.43900
N1865       N  0.55520892  0.65806660  0.01644238    -0.33200
N1866       N  0.56559888  0.67505346  0.03438338    -0.27500
C1867       C  0.55195445  0.69959670  0.03263259    -0.03600
C1868       C  0.53161030  0.69722692  0.01312988     0.08700
C1869       C  0.53490966  0.67085650  0.00296055     0.02500
H1870       H  0.55677192  0.71793176  0.04420799     0.10100
H1871       H  0.52426597  0.66179008  0.98628027     0.09200
N1872       N  0.63078710  0.63796334  0.07503421    -0.34600
N1873       N  0.63009860  0.61054604  0.07851163    -0.26800
C1874       C  0.65504345  0.60202492  0.08772500    -0.02100
C1875       C  0.67222464  0.62499424  0.09004292     0.06500
C1876       C  0.65624584  0.64743074  0.08198053     0.04600
H1877       H  0.66041701  0.58057209  0.09195148     0.09700
H1878       H  0.66276252  0.66899507  0.08081606     0.08600
N1879       N  0.93355010  0.92487501  0.96768412    -0.25800
N1880       N  0.94541730  0.90773762  0.98462763    -0.33700
C1881       C  0.96640079  0.92053830  0.99709256     0.02500
C1882       C  0.96853787  0.94718531  0.98735676     0.08600
C1883       C  0.94687179  0.94961963  0.96914509    -0.04500
H1884       H  0.97823790  0.91128406  0.01292456     0.09200
H1885       H  0.94096276  0.96812593  0.95829097     0.10400
Cu1886     Cu  0.93574285  0.86675319  0.98764818     0.44200
Cu1887     Cu  0.89965670  0.91104068  0.94504577     0.42000
Cu1888     Cu  0.90066827  0.83353311  0.93572995     0.43900
N1889       N  0.94584155  0.82783574  0.97538043    -0.33200
N1890       N  0.93430985  0.81500079  0.95513673    -0.27500
C1891       C  0.94758791  0.79044391  0.95167131    -0.03600
C1892       C  0.96896192  0.78870888  0.97020377     0.08700
C1893       C  0.96663302  0.81248063  0.98514093     0.02500
H1894       H  0.94169937  0.77474772  0.93738401     0.10100
H1895       H  0.97811250  0.81775957  0.00275939     0.09200
N1896       N  0.86737350  0.85977262  0.92595424    -0.34600
N1897       N  0.86686361  0.88722654  0.92928051    -0.26800
C1898       C  0.84158776  0.89684425  0.92192723    -0.02100
C1899       C  0.82555219  0.87448407  0.91377442     0.06500
C1900       C  0.84250443  0.85139989  0.91644944     0.04600
H1901       H  0.83534296  0.91851314  0.92256691     0.09700
H1902       H  0.83714643  0.83000915  0.91192909     0.08600
C1903       C  0.74986451  0.62503230  0.12458461    -0.01000
C1904       C  0.75006944  0.87495505  0.87538238    -0.01000
C1905       C  0.79751725  0.87508069  0.90329195    -0.11800
C1906       C  0.77499424  0.87508139  0.89244548    -0.13400
C1907       C  0.70074021  0.62533874  0.09933607    -0.11800
C1908       C  0.72386205  0.62521845  0.10900423    -0.13400
C1909       C  0.70085820  0.87516022  0.90049312    -0.11800
C1910       C  0.72399342  0.87516283  0.89085316    -0.13400
C1911       C  0.77488477  0.62508810  0.10762842    -0.11800
C1912       C  0.79742159  0.62492245  0.09679596    -0.13400
C1913       C  0.75069199  0.57667145  0.15120363    -0.11800
C1914       C  0.75032876  0.59943659  0.14078620    -0.13400
C1915       C  0.00025888  0.64972583  0.36045474    -0.11800
C1916       C  0.00063846  0.67251087  0.35008066    -0.13400
C1917       C  0.75065471  0.67329077  0.15119824    -0.11800
C1918       C  0.75039444  0.65046796  0.14094016    -0.13400
C1919       C  0.00033095  0.59870414  0.36024120    -0.11800
C1920       C  0.00060344  0.57591115  0.34992952    -0.13400
C1921       C  0.95072100  0.62388016  0.40193090    -0.11800
C1922       C  0.97382605  0.62391353  0.39223280    -0.13400
C1923       C  0.52483726  0.62405731  0.39356141    -0.11800
C1924       C  0.54739101  0.62433901  0.40435453    -0.13400
C1925       C  0.52491685  0.87395664  0.60663810    -0.11800
C1926       C  0.54745228  0.87411590  0.59582462    -0.12600
C1927       C  0.95080659  0.87398462  0.59851243    -0.11800
C1928       C  0.97392643  0.87385888  0.60818236    -0.13400
C1929       C  0.75073982  0.90035524  0.85898402    -0.11800
C1930       C  0.75115273  0.92319131  0.84875776    -0.13400
C1931       C  0.75080944  0.82647803  0.84895239    -0.11800
C1932       C  0.75058902  0.84930395  0.85925728    -0.13400
C1933       C  0.50049291  0.89967077  0.63982297    -0.11800
C1934       C  0.50073237  0.92250112  0.65011197    -0.13400
C1935       C  0.50064836  0.84863212  0.64006329    -0.11800
C1936       C  0.50106719  0.82581696  0.65032701    -0.13400
loop_ 
_geom_bond_atom_site_label_1 
_geom_bond_atom_site_label_2 
_geom_bond_distance 
_geom_bond_site_symmetry_2 
_ccdc_geom_bond_type 
C1            C2   1.416       .  A
C1            C6   1.397       .  A
C1           C92   1.470       .  S
C2            C3   1.396       .  A
C2           C68   1.471       .  S
C3            C4   1.398       .  A
C3            H8   1.085       .  S
C4            C5   1.419       .  A
C4           C30   1.472       .  S
C5            C6   1.398       .  A
C5           C54   1.473       .  S
C6            H7   1.085       .  S
C9           C10   1.416       .  A
C9           C14   1.396       .  A
C9           C44   1.471       .  S
C10          C11   1.397       .  A
C10          C20   1.470       .  S
C11          C12   1.398       .  A
C11          H16   1.085       .  S
C12          C13   1.419       .  A
C12          C78   1.473       .  S
C13          C14   1.398       .  A
C13         C102   1.472       .  S
C14          H15   1.085       .  S
N17          N18   1.318       .  A
N17          C21   1.350       .  A
N17         Cu25   2.089       .  S
N18          C19   1.336       .  A
N18        Cu992   2.026       .  S
C19          C20   1.373       .  A
C19          H22   1.079       .  S
C20          C21   1.392       .  A
C21          H23   1.082       .  S
Cu24         N27   2.026   1_655  S
Cu24        N986   2.026       .  S
Cu25         N35   2.093       .  S
Cu26         N28   2.094       .  S
Cu26         N34   2.099       .  S
N27          N28   1.318       .  A
N27          C31   1.336       .  A
N28          C29   1.350       .  A
C29          C30   1.394       .  A
C29          H32   1.082       .  S
C30          C31   1.373       .  A
C31          H33   1.079       .  S
N34        N1003   1.328   1_455  A
N34          C38   1.349       .  A
N35        N1002   1.328       .  A
N35          C36   1.348       .  A
C36        C1005   1.380       .  A
C36          H39   1.082       .  S
C37          C38   1.382       .  A
C37        C1004   1.380   1_455  A
C37         C484   1.445       .  S
C38          H40   1.082       .  S
N41          N42   1.319       .  A
N41          C45   1.350       .  A
N41         Cu49   2.091       .  S
N42          C43   1.336       .  A
N42       Cu1016   2.030       .  S
C43          C44   1.374       .  A
C43          H46   1.079       .  S
C44          C45   1.392       .  A
C45          H47   1.082       .  S
Cu48         N51   2.030   1_655  S
Cu48       N1010   2.030       .  S
Cu49         N59   2.095   1_545  S
Cu50         N52   2.095       .  S
Cu50         N58   2.099   1_545  S
N51          N52   1.318       .  A
N51          C55   1.337       .  A
N52          C53   1.350       .  A
C53          C54   1.393       .  A
C53          H56   1.082       .  S
C54          C55   1.374       .  A
C55          H57   1.079       .  S
N58        N1027   1.327   1_455  A
N58         C546   1.349       .  A
N59        N1026   1.327       .  A
N59         C544   1.348       .  A
C60        C1029   1.382       .  A
C60          H63   1.082       .  S
C60         N543   1.348       .  A
C61          C62   1.382       .  A
C61        C1028   1.382   1_455  A
C61         C482   1.447       .  S
C62          H64   1.082       .  S
C62         N542   1.349       .  A
N65          N66   1.318       .  A
N65          C69   1.350       .  A
N65         Cu73   2.092       .  S
N66          C67   1.336       .  A
N66         Cu72   2.029       .  S
C67          C68   1.373       .  A
C67          H70   1.079       .  S
C68          C69   1.392       .  A
C69          H71   1.082       .  S
Cu72         N75   2.029       .  S
Cu73         N83   2.096       .  S
Cu74         N76   2.096       .  S
Cu74         N82   2.099       .  S
N75          N76   1.318       .  A
N75          C79   1.337       .  A
N76          C77   1.350       .  A
C77          C78   1.393       .  A
C77          H80   1.082       .  S
C78          C79   1.374       .  A
C79          H81   1.079       .  S
N82          N83   1.327       .  A
N82          C86   1.349       .  A
N83          C84   1.348       .  A
C84          C85   1.382       .  A
C84          H87   1.082       .  S
C85          C86   1.382       .  A
C85         C479   1.448       .  S
C86          H88   1.082       .  S
N89          N90   1.318       .  A
N89          C93   1.350       .  A
N89         Cu97   2.089       .  S
N90          C91   1.336       .  A
N90         Cu96   2.027       .  S
C91          C92   1.373       .  A
C91          H94   1.079       .  S
C92          C93   1.392       .  A
C93          H95   1.082       .  S
Cu96         N99   2.026       .  S
Cu97        N107   2.093   1_545  S
Cu98        N100   2.094       .  S
Cu98        N106   2.099   1_545  S
N99         N100   1.318       .  A
N99         C103   1.337       .  A
N100        C101   1.350       .  A
C101        C102   1.394       .  A
C101        H104   1.082       .  S
C102        C103   1.373       .  A
C103        H105   1.079       .  S
N106        N107   1.327       .  A
N106        C594   1.349       .  A
N107        C592   1.348       .  A
C108        C109   1.381       .  A
C108        H111   1.082       .  S
C108        N591   1.348       .  A
C109        C110   1.382       .  A
C109        C478   1.446       .  S
C110        H112   1.082       .  S
C110        N590   1.349       .  A
C113        C473   1.475   1_655  S
C113        C481   1.477   1_655  S
C113        C483   1.475   1_655  S
C113       C1444   1.476       .  S
C114        C115   1.421       .  A
C114        C603   1.398       .  A
C114        C143   1.475       .  S
C115        C600   1.399       .  A
C115        C167   1.475       .  S
C116        C117   1.397       .  A
C116        C599   1.399       .  A
C116        H121   1.085       .  S
C117        C118   1.416       .  A
C117        C205   1.471       .  S
C118        C119   1.397       .  A
C118        C181   1.470       .  S
C119        C598   1.398       .  A
C119        H120   1.085       .  S
C122        C123   1.421       .  A
C122        C127   1.398       .  A
C122        C191   1.475       .  S
C123        C124   1.399       .  A
C123        C215   1.475       .  S
C124        C125   1.397       .  A
C124        H129   1.085       .  S
C125        C126   1.416       .  A
C125        C157   1.471       .  S
C126        C127   1.397       .  A
C126        C133   1.470       .  S
C127        H128   1.085       .  S
N130        N131   1.318       .  A
N130        C134   1.351       .  A
N130       Cu138   2.088       .  S
N131        C132   1.334       .  A
N131       Cu137   2.028       .  S
C132        C133   1.373       .  A
C132        H135   1.079       .  S
C133        C134   1.393       .  A
C134        H136   1.082       .  S
Cu137       N140   2.027       .  S
Cu138       N148   2.093       .  S
Cu139       N141   2.097       .  S
Cu139       N147   2.101       .  S
N140        N141   1.318       .  A
N140        C144   1.338       .  A
N141        C142   1.350       .  A
C142        C143   1.394       .  A
C142        H145   1.082       .  S
C143        C144   1.374       .  A
C144        H146   1.078       .  S
N147        N148   1.328       .  A
N147        C151   1.349       .  A
N148        C149   1.348       .  A
C149        C150   1.380       .  A
C149        H152   1.082       .  S
C150        C151   1.383       .  A
C150        C472   1.446       .  S
C151        H153   1.082       .  S
N154        N155   1.319       .  A
N154        C158   1.351       .  A
N154       Cu162   2.087       .  S
N155        C156   1.335       .  A
N155       Cu161   2.034       .  S
C156        C157   1.374       .  A
C156        H159   1.080       .  S
C157        C158   1.391       .  A
C158        H160   1.082       .  S
Cu161       N164   2.034       .  S
Cu162       N172   2.091       .  S
Cu163       N165   2.095       .  S
Cu163       N171   2.099       .  S
N164        N165   1.318       .  A
N164        C168   1.339       .  A
N165        C166   1.349       .  A
C166        C167   1.393       .  A
C166        H169   1.082       .  S
C167        C168   1.375       .  A
C168        H170   1.078       .  S
N171        N172   1.327       .  A
N171        C175   1.349       .  A
N172        C173   1.347       .  A
C173        C174   1.380       .  A
C173        H176   1.082       .  S
C174        C175   1.383       .  A
C174        C469   1.446       .  S
C175        H177   1.082       .  S
N178        N179   1.318       .  A
N178        C182   1.351       .  A
N178       Cu186   2.087       .  S
N179        C180   1.334       .  A
N179       Cu185   2.028       .  S
C180        C181   1.373       .  A
C180        H183   1.079       .  S
C181        C182   1.392       .  A
C182        H184   1.082       .  S
Cu185       N188   2.027       .  S
Cu186       N196   2.092       .  S
Cu187       N189   2.097       .  S
Cu187       N195   2.101       .  S
N188        N189   1.318       .  A
N188        C192   1.338       .  A
N189        C190   1.349       .  A
C190        C191   1.395       .  A
C190        H193   1.082       .  S
C191        C192   1.374       .  A
C192        H194   1.078       .  S
N195        N196   1.328       .  A
N195        C199   1.349       .  A
N196        C197   1.347       .  A
C197        C198   1.380       .  A
C197        H200   1.082       .  S
C198        C199   1.383       .  A
C198        C474   1.446       .  S
C199        H201   1.082       .  S
N202        N203   1.319       .  A
N202        C206   1.351       .  A
N202       Cu210   2.087       .  S
N203        C204   1.335       .  A
N203       Cu209   2.034       .  S
C204        C205   1.374       .  A
C204        H207   1.079       .  S
C205        C206   1.391       .  A
C206        H208   1.082       .  S
Cu209       N212   2.034       .  S
Cu210       N220   2.091       .  S
Cu211       N213   2.095       .  S
Cu211       N219   2.098       .  S
N212        N213   1.318       .  A
N212        C216   1.339       .  A
N213        C214   1.349       .  A
C214        C215   1.393       .  A
C214        H217   1.082       .  S
C215        C216   1.375       .  A
C216        H218   1.079       .  S
N219        N220   1.327       .  A
N219        C223   1.349       .  A
N220        C221   1.348       .  A
C221        C222   1.381       .  A
C221        H224   1.082       .  S
C222        C223   1.383       .  A
C222        C475   1.446       .  S
C223        H225   1.082       .  S
C226        C227   1.417       .  A
C226        C231   1.397       .  A
C226        C245   1.470       .  S
C227        C228   1.397       .  A
C227        C293   1.471       .  S
C228        C229   1.397       .  A
C228        H233   1.085       .  S
C229        C230   1.418       .  A
C229        C279   1.471       .  S
C230        C231   1.397       .  A
C230        C327   1.472       .  S
C231        H232   1.085       .  S
C234        C235   1.417       .  A
C234        C239   1.397       .  A
C234        C269   1.471       .  S
C235        C236   1.397       .  A
C235        C317   1.471       .  S
C236        C237   1.397       .  A
C236        H241   1.085       .  S
C237        C238   1.418       .  A
C237        C255   1.471       .  S
C238        C239   1.397       .  A
C238        C303   1.472       .  S
C239        H240   1.085       .  S
N242        N243   1.318       .  A
N242        C246   1.350       .  A
N242       Cu250   2.090       .  S
N243        C244   1.336       .  A
N243       Cu249   2.026       .  S
C244        C245   1.373       .  A
C244        H247   1.079       .  S
C245        C246   1.393       .  A
C246        H248   1.082       .  S
Cu249      N1220   2.025       .  S
Cu250       N260   2.095       .  S
Cu251       N253   2.092       .  S
Cu251       N259   2.097       .  S
N252        N253   1.318       .  A
N252        C256   1.336       .  A
N252      Cu1217   2.025       .  S
N253        C254   1.350       .  A
C254        C255   1.393       .  A
C254        H257   1.082       .  S
C255        C256   1.373       .  A
C256        H258   1.079       .  S
N259       N1228   1.327   1_455  A
N259        C747   1.348       .  A
N260       N1227   1.327       .  A
N260        C745   1.348       .  A
C261        C262   1.381       .  A
C261        H264   1.082       .  S
C261        N744   1.348       .  A
C262       C1231   1.381       .  A
C262        C468   1.445       .  S
C263       C1230   1.381       .  A
C263        H265   1.082       .  S
C263        N743   1.348       .  A
N266        N267   1.318       .  A
N266        C270   1.350       .  A
N266       Cu274   2.091       .  S
N267        C268   1.336       .  A
N267       Cu273   2.026       .  S
C268        C269   1.373       .  A
C268        H271   1.079       .  S
C269        C270   1.393       .  A
C270        H272   1.082       .  S
Cu273       N276   2.026       .  S
Cu274       N284   2.095       .  S
Cu275       N277   2.092       .  S
Cu275       N283   2.096       .  S
N276        N277   1.318       .  A
N276        C280   1.336       .  A
N277        C278   1.350       .  A
C278        C279   1.393       .  A
C278        H281   1.082       .  S
C279        C280   1.373       .  A
C280        H282   1.079       .  S
N283        N284   1.327       .  A
N283        C287   1.348       .  A
N284        C285   1.348       .  A
C285        C286   1.381       .  A
C285        H288   1.082       .  S
C286        C287   1.381       .  A
C286        C465   1.446       .  S
C287        H289   1.082       .  S
N290        N291   1.318       .  A
N290        C294   1.350       .  A
N290       Cu298   2.092       .  S
N291        C292   1.337       .  A
N291       Cu297   2.030       .  S
C292        C293   1.374       .  A
C292        H295   1.080       .  S
C293        C294   1.392       .  A
C294        H296   1.082       .  S
Cu297      N1268   2.030       .  S
Cu298       N308   2.096       .  S
Cu299       N301   2.094       .  S
Cu299       N307   2.098       .  S
N300        N301   1.318       .  A
N300        C304   1.337       .  A
N300      Cu1265   2.030       .  S
N301        C302   1.350       .  A
C302        C303   1.393       .  A
C302        H305   1.082       .  S
C303        C304   1.374       .  A
C304        H306   1.079       .  S
N307       N1276   1.327   1_455  A
N307        C311   1.349       .  A
N308       N1275   1.327       .  A
N308        C309   1.348       .  A
C309        C310   1.382       .  A
C309        H312   1.082       .  S
C310       C1279   1.382       .  A
C310        C464   1.447       .  S
C311       C1278   1.382       .  A
C311        H313   1.082       .  S
N314        N315   1.318       .  A
N314        C318   1.350       .  A
N314       Cu322   2.093       .  S
N315        C316   1.337       .  A
N315       Cu321   2.029       .  S
C316        C317   1.374       .  A
C316        H319   1.079       .  S
C317        C318   1.392       .  A
C318        H320   1.082       .  S
Cu321       N324   2.029       .  S
Cu322       N332   2.097       .  S
Cu323       N325   2.094       .  S
Cu323       N331   2.098       .  S
N324        N325   1.318       .  A
N324        C328   1.337       .  A
N325        C326   1.350       .  A
C326        C327   1.393       .  A
C326        H329   1.082       .  S
C327        C328   1.374       .  A
C328        H330   1.079       .  S
N331        N332   1.327       .  A
N331        C819   1.349       .  A
N332        C817   1.349       .  A
C333        C334   1.382       .  A
C333        H336   1.082       .  S
C333        N816   1.349       .  A
C334        C335   1.382       .  A
C334        C461   1.447       .  S
C335        H337   1.082       .  S
C335        N815   1.349       .  A
C338        C463   1.477       .  S
C338        C467   1.475       .  S
C338        C470   1.476       .  S
C338       C1439   1.475       .  S
C339        C344   1.398   1_554  A
C339       C1308   1.420       .  A
C339        C368   1.474       .  S
C340        C341   1.398   1_554  A
C340       C1307   1.420   1_455  A
C340        C416   1.474       .  S
C341        C342   1.397       .  A
C341        H346   1.085       .  S
C342       C1311   1.416   1_455  A
C342        C392   1.471       .  S
C343        C344   1.397       .  A
C343       C1310   1.416       .  A
C343        C440   1.470       .  S
C344        H345   1.085       .  S
C347       C1316   1.420       .  A
C347        C836   1.398   1_556  A
C347        C430   1.474       .  S
C348       C1315   1.420   1_455  A
C348        C833   1.399   1_556  A
C348        C382   1.474       .  S
C349        C350   1.397   1_565  A
C349        C832   1.399   1_554  A
C349        H354   1.085       .  S
C350       C1319   1.416   1_455  A
C350        C406   1.471       .  S
C351        C352   1.397   1_545  A
C351       C1318   1.416       .  A
C351        C358   1.470       .  S
C352        C831   1.398   1_554  A
C352        H353   1.085       .  S
N355        N356   1.318       .  A
N355        C359   1.350       .  A
N355       Cu363   2.090       .  S
N356        C357   1.335       .  A
N356       Cu362   2.026       .  S
C357        C358   1.373       .  A
C357        H360   1.079   1_554  S
C358        C359   1.393       .  A
C359        H361   1.082       .  S
Cu362       N365   2.025       .  S
Cu363       N373   2.094       .  S
Cu364       N366   2.097       .  S
Cu364       N372   2.101       .  S
N365        N366   1.318       .  A
N365        C369   1.337       .  A
N366        C367   1.350       .  A
C367        C368   1.394       .  A
C367        H370   1.082       .  S
C368        C369   1.374       .  A
C369        H371   1.078   1_554  S
N372        N373   1.328       .  A
N372        C376   1.349       .  A
N373        C374   1.348       .  A
C374        C375   1.381       .  A
C374        H377   1.082       .  S
C375        C376   1.383       .  A
C375        C460   1.446       .  S
C376        H378   1.082       .  S
N379        N380   1.318       .  A
N379        C383   1.350       .  A
N379       Cu387   2.094       .  S
N380        C381   1.338       .  A
N380       Cu386   2.033       .  S
C381        C382   1.375       .  A
C381        H384   1.079   1_556  S
C382        C383   1.393       .  A
C383        H385   1.082       .  S
Cu386       N389   2.033       .  S
Cu387       N397   2.098       .  S
Cu388       N390   2.088       .  S
Cu388       N396   2.092       .  S
N389        N390   1.319       .  A
N389        C393   1.336       .  A
N390        C391   1.350       .  A
C391        C392   1.391       .  A
C391        H394   1.082       .  S
C392        C393   1.374       .  A
C393        H395   1.080   1_556  S
N396        N397   1.327       .  A
N396        C400   1.348       .  A
N397        C398   1.349       .  A
C398        C399   1.383       .  A
C398        H401   1.082       .  S
C399        C400   1.381       .  A
C399        C457   1.446       .  S
C400        H402   1.082       .  S
N403        N404   1.319       .  A
N403        C407   1.351       .  A
N403       Cu411   2.088       .  S
N404        C405   1.336       .  A
N404       Cu410   2.033       .  S
C405        C406   1.374       .  A
C405        H408   1.080   1_554  S
C406        C407   1.391       .  A
C407        H409   1.082       .  S
Cu410       N413   2.033       .  S
Cu411       N421   2.092       .  S
Cu412       N414   2.094       .  S
Cu412       N420   2.099       .  S
N413        N414   1.318       .  A
N413        C417   1.338       .  A
N414        C415   1.350       .  A
C415        C416   1.393       .  A
C415        H418   1.082       .  S
C416        C417   1.375       .  A
C417        H419   1.079   1_554  S
N420        N421   1.327       .  A
N420        C424   1.349       .  A
N421        C422   1.348       .  A
C422        C423   1.381       .  A
C422        H425   1.082       .  S
C423        C424   1.383       .  A
C423        C455   1.446       .  S
C424        H426   1.082       .  S
N427        N428   1.318       .  A
N427        C431   1.350       .  A
N427       Cu435   2.097       .  S
N428        C429   1.337       .  A
N428       Cu434   2.025       .  S
C429        C430   1.374       .  A
C429        H432   1.078   1_556  S
C430        C431   1.394       .  A
C431        H433   1.082       .  S
Cu434       N437   2.026       .  S
Cu435       N445   2.101       .  S
Cu436       N438   2.088       .  S
Cu436       N444   2.092       .  S
N437        N438   1.318       .  A
N437        C441   1.335       .  A
N438        C439   1.350       .  A
C439        C440   1.393       .  A
C439        H442   1.082       .  S
C440        C441   1.373       .  A
C441        H443   1.079   1_556  S
N444        N445   1.328       .  A
N444        C448   1.347       .  A
N445        C446   1.349       .  A
C446        C447   1.383       .  A
C446        H449   1.082       .  S
C447        C448   1.380       .  A
C447        C453   1.446       .  S
C448        H450   1.082       .  S
C451        C456   1.476       .  S
C451        C459   1.476       .  S
C451        C462   1.477       .  S
C451        C466   1.475       .  S
C452        C454   1.475       .  S
C452        C458   1.476       .  S
C452        C477   1.475       .  S
C452        C480   1.477       .  S
C453        C454   1.212       .  T
C455        C456   1.212       .  T
C457        C458   1.212       .  T
C459        C460   1.212       .  T
C461        C462   1.213       .  T
C463        C464   1.213       .  T
C465        C466   1.212       .  T
C467        C468   1.212       .  T
C469        C470   1.212       .  T
C471       C1306   1.475   1_455  S
C471        C472   1.212       .  T
C473        C474   1.212       .  T
C475        C476   1.212       .  T
C476       C1081   1.476       .  S
C477        C478   1.212       .  T
C479        C480   1.213       .  T
C481        C482   1.213       .  T
C483        C484   1.212       .  T
C485        C486   1.416       .  A
C485        C490   1.397       .  A
C485        C576   1.470       .  S
C486        C487   1.396       .  A
C486        C552   1.471       .  S
C487        C488   1.398       .  A
C487        H492   1.085       .  S
C488        C489   1.419       .  A
C488        C514   1.472       .  S
C489        C490   1.398       .  A
C489        C538   1.473       .  S
C490        H491   1.085       .  S
C493        C494   1.416       .  A
C493        C498   1.396       .  A
C493        C528   1.471       .  S
C494        C495   1.397       .  A
C494        C504   1.470       .  S
C495        C496   1.398       .  A
C495        H500   1.085       .  S
C496        C497   1.419       .  A
C496        C562   1.473       .  S
C497        C498   1.398       .  A
C497        C586   1.472       .  S
C498        H499   1.085       .  S
N501        N502   1.318       .  A
N501        C505   1.350       .  A
N501       Cu509   2.089       .  S
N502        C503   1.336       .  A
N502      Cu1476   2.026       .  S
C503        C504   1.373       .  A
C503        H506   1.079       .  S
C504        C505   1.392       .  A
C505        H507   1.082       .  S
Cu508      N1470   2.026       .  S
Cu508       N511   2.026   1_655  S
Cu509       N519   2.093       .  S
Cu510       N512   2.094       .  S
Cu510       N518   2.099       .  S
N511        N512   1.318       .  A
N511        C515   1.336       .  A
N512        C513   1.350       .  A
C513        C514   1.394       .  A
C513        H516   1.082       .  S
C514        C515   1.373       .  A
C515        H517   1.079       .  S
N518       N1487   1.328   1_455  A
N518        C522   1.349       .  A
N519       N1486   1.328       .  A
N519        C520   1.348       .  A
C520       C1489   1.380       .  A
C520        H523   1.082       .  S
C521       C1488   1.380   1_455  A
C521        C522   1.382       .  A
C521        C968   1.445       .  S
C522        H524   1.082       .  S
N525        N526   1.319       .  A
N525        C529   1.350       .  A
N525       Cu533   2.091       .  S
N526        C527   1.336       .  A
N526      Cu1500   2.030       .  S
C527        C528   1.374       .  A
C527        H530   1.079       .  S
C528        C529   1.392       .  A
C529        H531   1.082       .  S
Cu532      N1494   2.030       .  S
Cu532       N535   2.030   1_655  S
Cu533       N543   2.095       .  S
Cu534       N536   2.095       .  S
Cu534       N542   2.099       .  S
N535        N536   1.318       .  A
N535        C539   1.337       .  A
N536        C537   1.350       .  A
C537        C538   1.393       .  A
C537        H540   1.082       .  S
C538        C539   1.374       .  A
C539        H541   1.079       .  S
N542       N1511   1.327   1_455  A
N543       N1510   1.327       .  A
C544       C1513   1.382       .  A
C544        H547   1.082       .  S
C545       C1512   1.382   1_455  A
C545        C546   1.382       .  A
C545        C966   1.447       .  S
C546        H548   1.082       .  S
N549        N550   1.318       .  A
N549        C553   1.350       .  A
N549       Cu557   2.092       .  S
N550        C551   1.336       .  A
N550       Cu556   2.029       .  S
C551        C552   1.373       .  A
C551        H554   1.079       .  S
C552        C553   1.392       .  A
C553        H555   1.082       .  S
Cu556       N559   2.029       .  S
Cu557       N567   2.096       .  S
Cu558       N560   2.096       .  S
Cu558       N566   2.099       .  S
N559        N560   1.318       .  A
N559        C563   1.337       .  A
N560        C561   1.350       .  A
C561        C562   1.393       .  A
C561        H564   1.082       .  S
C562        C563   1.374       .  A
C563        H565   1.079       .  S
N566        N567   1.327       .  A
N566        C570   1.349       .  A
N567        C568   1.348       .  A
C568        C569   1.382       .  A
C568        H571   1.082       .  S
C569        C570   1.382       .  A
C569        C963   1.448       .  S
C570        H572   1.082       .  S
N573        N574   1.318       .  A
N573        C577   1.350       .  A
N573       Cu581   2.089       .  S
N574        C575   1.336       .  A
N574       Cu580   2.027       .  S
C575        C576   1.373       .  A
C575        H578   1.079       .  S
C576        C577   1.392       .  A
C577        H579   1.082       .  S
Cu580       N583   2.026       .  S
Cu581       N591   2.093       .  S
Cu582       N584   2.094       .  S
Cu582       N590   2.099       .  S
N583        N584   1.318       .  A
N583        C587   1.337       .  A
N584        C585   1.350       .  A
C585        C586   1.394       .  A
C585        H588   1.082       .  S
C586        C587   1.373       .  A
C587        H589   1.079       .  S
N590        N591   1.327       .  A
C592        C593   1.381       .  A
C592        H595   1.082       .  S
C593        C594   1.382       .  A
C593        C962   1.446       .  S
C594        H596   1.082       .  S
C597        C957   1.475   1_655  S
C597       C1928   1.476       .  S
C597        C965   1.477   1_655  S
C597        C967   1.475   1_655  S
C598        C599   1.421       .  A
C598        C627   1.475       .  S
C599        C651   1.475       .  S
C600        C601   1.397   1_545  A
C600        H605   1.085       .  S
C601        C602   1.416       .  A
C601        C689   1.471       .  S
C602        C603   1.397   1_565  A
C602        C665   1.470       .  S
C603        H604   1.085       .  S
C606        C607   1.421       .  A
C606        C611   1.398       .  A
C606        C675   1.475       .  S
C607        C608   1.399       .  A
C607        C699   1.475       .  S
C608        C609   1.397       .  A
C608        H613   1.085       .  S
C609        C610   1.416       .  A
C609        C641   1.471       .  S
C610        C611   1.397       .  A
C610        C617   1.470       .  S
C611        H612   1.085       .  S
N614        N615   1.318       .  A
N614        C618   1.351       .  A
N614       Cu622   2.088       .  S
N615        C616   1.334       .  A
N615       Cu621   2.028       .  S
C616        C617   1.373       .  A
C616        H619   1.079       .  S
C617        C618   1.393       .  A
C618        H620   1.082       .  S
Cu621       N624   2.027       .  S
Cu622       N632   2.093       .  S
Cu623       N625   2.097       .  S
Cu623       N631   2.101       .  S
N624        N625   1.318       .  A
N624        C628   1.338       .  A
N625        C626   1.350       .  A
C626        C627   1.394       .  A
C626        H629   1.082       .  S
C627        C628   1.374       .  A
C628        H630   1.078       .  S
N631        N632   1.328       .  A
N631        C635   1.349       .  A
N632        C633   1.348       .  A
C633        C634   1.380       .  A
C633        H636   1.082       .  S
C634        C635   1.383       .  A
C634        C956   1.446       .  S
C635        H637   1.082       .  S
N638        N639   1.319       .  A
N638        C642   1.351       .  A
N638       Cu646   2.087       .  S
N639        C640   1.335       .  A
N639       Cu645   2.034       .  S
C640        C641   1.374       .  A
C640        H643   1.080       .  S
C641        C642   1.391       .  A
C642        H644   1.082       .  S
Cu645       N648   2.034       .  S
Cu646       N656   2.091       .  S
Cu647       N649   2.095       .  S
Cu647       N655   2.099       .  S
N648        N649   1.318       .  A
N648        C652   1.339       .  A
N649        C650   1.349       .  A
C650        C651   1.393       .  A
C650        H653   1.082       .  S
C651        C652   1.375       .  A
C652        H654   1.078       .  S
N655        N656   1.327       .  A
N655        C659   1.349       .  A
N656        C657   1.347       .  A
C657        C658   1.380       .  A
C657        H660   1.082       .  S
C658        C659   1.383       .  A
C658        C953   1.446       .  S
C659        H661   1.082       .  S
N662        N663   1.318       .  A
N662        C666   1.351       .  A
N662       Cu670   2.087       .  S
N663        C664   1.334       .  A
N663       Cu669   2.028       .  S
C664        C665   1.373       .  A
C664        H667   1.079       .  S
C665        C666   1.392       .  A
C666        H668   1.082       .  S
Cu669       N672   2.027       .  S
Cu670       N680   2.092       .  S
Cu671       N673   2.097       .  S
Cu671       N679   2.101       .  S
N672        N673   1.318       .  A
N672        C676   1.338       .  A
N673        C674   1.349       .  A
C674        C675   1.395       .  A
C674        H677   1.082       .  S
C675        C676   1.374       .  A
C676        H678   1.078       .  S
N679        N680   1.328       .  A
N679        C683   1.349       .  A
N680        C681   1.347       .  A
C681        C682   1.380       .  A
C681        H684   1.082       .  S
C682        C683   1.383       .  A
C682        C958   1.446       .  S
C683        H685   1.082       .  S
N686        N687   1.319       .  A
N686        C690   1.351       .  A
N686       Cu694   2.087       .  S
N687        C688   1.335       .  A
N687       Cu693   2.034       .  S
C688        C689   1.374       .  A
C688        H691   1.079       .  S
C689        C690   1.391       .  A
C690        H692   1.082       .  S
Cu693       N696   2.034       .  S
Cu694       N704   2.091       .  S
Cu695       N697   2.095       .  S
Cu695       N703   2.098       .  S
N696        N697   1.318       .  A
N696        C700   1.339       .  A
N697        C698   1.349       .  A
C698        C699   1.393       .  A
C698        H701   1.082       .  S
C699        C700   1.375       .  A
C700        H702   1.079       .  S
N703        N704   1.327       .  A
N703        C707   1.349       .  A
N704        C705   1.348       .  A
C705        C706   1.381       .  A
C705        H708   1.082       .  S
C706        C707   1.383       .  A
C706        C959   1.446       .  S
C707        H709   1.082       .  S
C710        C711   1.417       .  A
C710        C715   1.397       .  A
C710        C729   1.470       .  S
C711        C712   1.397       .  A
C711        C777   1.471       .  S
C712        C713   1.397       .  A
C712        H717   1.085       .  S
C713        C714   1.418       .  A
C713        C763   1.471       .  S
C714        C715   1.397       .  A
C714        C811   1.472       .  S
C715        H716   1.085       .  S
C718        C719   1.417       .  A
C718        C723   1.397       .  A
C718        C753   1.471       .  S
C719        C720   1.397       .  A
C719        C801   1.471       .  S
C720        C721   1.397       .  A
C720        H725   1.085       .  S
C721        C722   1.418       .  A
C721        C739   1.471       .  S
C722        C723   1.397       .  A
C722        C787   1.472       .  S
C723        H724   1.085       .  S
N726        N727   1.318       .  A
N726        C730   1.350       .  A
N726       Cu734   2.090       .  S
N727        C728   1.336       .  A
N727       Cu733   2.026       .  S
C728        C729   1.373       .  A
C728        H731   1.079       .  S
C729        C730   1.393       .  A
C730        H732   1.082       .  S
Cu733      N1704   2.025       .  S
Cu734       N744   2.095   1_565  S
Cu735       N737   2.092       .  S
Cu735       N743   2.097   1_565  S
N736        N737   1.318       .  A
N736        C740   1.336       .  A
N736      Cu1701   2.025       .  S
N737        C738   1.350       .  A
C738        C739   1.393       .  A
C738        H741   1.082       .  S
C739        C740   1.373       .  A
C740        H742   1.079       .  S
N743       N1712   1.327   1_455  A
N744       N1711   1.327       .  A
C745        C746   1.381       .  A
C745        H748   1.082       .  S
C746       C1715   1.381       .  A
C746        C952   1.445       .  S
C747       C1714   1.381       .  A
C747        H749   1.082       .  S
N750        N751   1.318       .  A
N750        C754   1.350       .  A
N750       Cu758   2.091       .  S
N751        C752   1.336       .  A
N751       Cu757   2.026       .  S
C752        C753   1.373       .  A
C752        H755   1.079       .  S
C753        C754   1.393       .  A
C754        H756   1.082       .  S
Cu757       N760   2.026       .  S
Cu758       N768   2.095       .  S
Cu759       N761   2.092       .  S
Cu759       N767   2.096       .  S
N760        N761   1.318       .  A
N760        C764   1.336       .  A
N761        C762   1.350       .  A
C762        C763   1.393       .  A
C762        H765   1.082       .  S
C763        C764   1.373       .  A
C764        H766   1.079       .  S
N767        N768   1.327       .  A
N767        C771   1.348       .  A
N768        C769   1.348       .  A
C769        C770   1.381       .  A
C769        H772   1.082       .  S
C770        C771   1.381       .  A
C770        C949   1.446       .  S
C771        H773   1.082       .  S
N774        N775   1.318       .  A
N774        C778   1.350       .  A
N774       Cu782   2.092       .  S
N775        C776   1.337       .  A
N775       Cu781   2.030       .  S
C776        C777   1.374       .  A
C776        H779   1.080       .  S
C777        C778   1.392       .  A
C778        H780   1.082       .  S
Cu781      N1752   2.030       .  S
Cu782       N792   2.096       .  S
Cu783       N785   2.094       .  S
Cu783       N791   2.098       .  S
N784        N785   1.318       .  A
N784        C788   1.337       .  A
N784      Cu1749   2.030       .  S
N785        C786   1.350       .  A
C786        C787   1.393       .  A
C786        H789   1.082       .  S
C787        C788   1.374       .  A
C788        H790   1.079       .  S
N791       N1760   1.327   1_455  A
N791        C795   1.349       .  A
N792       N1759   1.327       .  A
N792        C793   1.348       .  A
C793        C794   1.382       .  A
C793        H796   1.082       .  S
C794       C1763   1.382       .  A
C794        C948   1.447       .  S
C795       C1762   1.382       .  A
C795        H797   1.082       .  S
N798        N799   1.318       .  A
N798        C802   1.350       .  A
N798       Cu806   2.093       .  S
N799        C800   1.337       .  A
N799       Cu805   2.029       .  S
C800        C801   1.374       .  A
C800        H803   1.079       .  S
C801        C802   1.392       .  A
C802        H804   1.082       .  S
Cu805       N808   2.029       .  S
Cu806       N816   2.097   1_565  S
Cu807       N809   2.094       .  S
Cu807       N815   2.098   1_565  S
N808        N809   1.318       .  A
N808        C812   1.337       .  A
N809        C810   1.350       .  A
C810        C811   1.393       .  A
C810        H813   1.082       .  S
C811        C812   1.374       .  A
C812        H814   1.079       .  S
N815        N816   1.327       .  A
C817        C818   1.382       .  A
C817        H820   1.082       .  S
C818        C819   1.382       .  A
C818        C945   1.447       .  S
C819        H821   1.082       .  S
C822        C947   1.477       .  S
C822        C951   1.475       .  S
C822        C954   1.476       .  S
C822       C1923   1.475       .  S
C823       C1792   1.420       .  A
C823        C828   1.398   1_554  A
C823        C852   1.474       .  S
C824       C1791   1.420   1_455  A
C824        C825   1.398   1_554  A
C824        C900   1.474       .  S
C825        C826   1.397       .  A
C825        H830   1.085       .  S
C826       C1795   1.416   1_455  A
C826        C876   1.471       .  S
C827       C1794   1.416       .  A
C827        C828   1.397       .  A
C827        C924   1.470       .  S
C828        H829   1.085       .  S
C831       C1800   1.420       .  A
C831        C914   1.474       .  S
C832       C1799   1.420   1_455  A
C832        C866   1.474       .  S
C833        C834   1.397       .  A
C833        H838   1.085       .  S
C834       C1803   1.416   1_455  A
C834        C890   1.471       .  S
C835       C1802   1.416       .  A
C835        C836   1.397       .  A
C835        C842   1.470       .  S
C836        H837   1.085       .  S
N839        N840   1.318       .  A
N839        C843   1.350       .  A
N839       Cu847   2.090       .  S
N840        C841   1.335       .  A
N840       Cu846   2.026       .  S
C841        C842   1.373       .  A
C841        H844   1.079   1_554  S
C842        C843   1.393       .  A
C843        H845   1.082       .  S
Cu846       N849   2.025       .  S
Cu847       N857   2.094       .  S
Cu848       N850   2.097       .  S
Cu848       N856   2.101       .  S
N849        N850   1.318       .  A
N849        C853   1.337       .  A
N850        C851   1.350       .  A
C851        C852   1.394       .  A
C851        H854   1.082       .  S
C852        C853   1.374       .  A
C853        H855   1.078   1_554  S
N856        N857   1.328       .  A
N856        C860   1.349       .  A
N857        C858   1.348       .  A
C858        C859   1.381       .  A
C858        H861   1.082       .  S
C859        C860   1.383       .  A
C859        C944   1.446       .  S
C860        H862   1.082       .  S
N863        N864   1.318       .  A
N863        C867   1.350       .  A
N863       Cu871   2.094       .  S
N864        C865   1.338       .  A
N864       Cu870   2.033       .  S
C865        C866   1.375       .  A
C865        H868   1.079   1_556  S
C866        C867   1.393       .  A
C867        H869   1.082       .  S
Cu870       N873   2.033       .  S
Cu871       N881   2.098       .  S
Cu872       N874   2.088       .  S
Cu872       N880   2.092       .  S
N873        N874   1.319       .  A
N873        C877   1.336       .  A
N874        C875   1.350       .  A
C875        C876   1.391       .  A
C875        H878   1.082       .  S
C876        C877   1.374       .  A
C877        H879   1.080   1_556  S
N880        N881   1.327       .  A
N880        C884   1.348       .  A
N881        C882   1.349       .  A
C882        C883   1.383       .  A
C882        H885   1.082       .  S
C883        C884   1.381       .  A
C883        C941   1.446       .  S
C884        H886   1.082       .  S
N887        N888   1.319       .  A
N887        C891   1.351       .  A
N887       Cu895   2.088       .  S
N888        C889   1.336       .  A
N888       Cu894   2.033       .  S
C889        C890   1.374       .  A
C889        H892   1.080   1_554  S
C890        C891   1.391       .  A
C891        H893   1.082       .  S
Cu894       N897   2.033       .  S
Cu895       N905   2.092       .  S
Cu896       N898   2.094       .  S
Cu896       N904   2.099       .  S
N897        N898   1.318       .  A
N897        C901   1.338       .  A
N898        C899   1.350       .  A
C899        C900   1.393       .  A
C899        H902   1.082       .  S
C900        C901   1.375       .  A
C901        H903   1.079   1_554  S
N904        N905   1.327       .  A
N904        C908   1.349       .  A
N905        C906   1.348       .  A
C906        C907   1.381       .  A
C906        H909   1.082       .  S
C907        C908   1.383       .  A
C907        C939   1.446       .  S
C908        H910   1.082       .  S
N911        N912   1.318       .  A
N911        C915   1.350       .  A
N911       Cu919   2.097       .  S
N912        C913   1.337       .  A
N912       Cu918   2.025       .  S
C913        C914   1.374       .  A
C913        H916   1.078   1_556  S
C914        C915   1.394       .  A
C915        H917   1.082       .  S
Cu918       N921   2.026       .  S
Cu919       N929   2.101       .  S
Cu920       N922   2.088       .  S
Cu920       N928   2.092       .  S
N921        N922   1.318       .  A
N921        C925   1.335       .  A
N922        C923   1.350       .  A
C923        C924   1.393       .  A
C923        H926   1.082       .  S
C924        C925   1.373       .  A
C925        H927   1.079   1_556  S
N928        N929   1.328       .  A
N928        C932   1.347       .  A
N929        C930   1.349       .  A
C930        C931   1.383       .  A
C930        H933   1.082       .  S
C931        C932   1.380       .  A
C931        C937   1.446       .  S
C932        H934   1.082       .  S
C935        C940   1.476       .  S
C935        C943   1.476       .  S
C935        C946   1.477       .  S
C935        C950   1.475       .  S
C936        C938   1.475       .  S
C936        C942   1.476       .  S
C936        C961   1.475       .  S
C936        C964   1.477       .  S
C937        C938   1.212       .  T
C939        C940   1.212       .  T
C941        C942   1.212       .  T
C943        C944   1.212       .  T
C945        C946   1.213       .  T
C947        C948   1.213       .  T
C949        C950   1.212       .  T
C951        C952   1.212       .  T
C953        C954   1.212       .  T
C955       C1790   1.475   1_455  S
C955        C956   1.212       .  T
C957        C958   1.212       .  T
C959        C960   1.212       .  T
C960       C1565   1.476       .  S
C961        C962   1.212       .  T
C963        C964   1.213       .  T
C965        C966   1.213       .  T
C967        C968   1.212       .  T
C969        C970   1.416       .  A
C969        C974   1.397       .  A
C969       C1060   1.470       .  S
C970        C971   1.396       .  A
C970       C1036   1.471       .  S
C971        C972   1.398       .  A
C971        H976   1.085       .  S
C972        C973   1.419       .  A
C972        C998   1.472       .  S
C973        C974   1.398       .  A
C973       C1022   1.473       .  S
C974        H975   1.085       .  S
C977        C978   1.416       .  A
C977        C982   1.396       .  A
C977       C1012   1.471       .  S
C978        C979   1.397       .  A
C978        C988   1.470       .  S
C979        C980   1.398       .  A
C979        H984   1.085       .  S
C980        C981   1.419       .  A
C980       C1046   1.473       .  S
C981        C982   1.398       .  A
C981       C1070   1.472       .  S
C982        H983   1.085       .  S
N985        N986   1.318       .  A
N985        C989   1.350       .  A
N985       Cu993   2.089       .  S
N986        C987   1.336       .  A
C987        C988   1.373       .  A
C987        H990   1.079       .  S
C988        C989   1.392       .  A
C989        H991   1.082       .  S
Cu992       N995   2.026       .  S
Cu993      N1003   2.093       .  S
Cu994       N996   2.094       .  S
Cu994      N1002   2.099       .  S
N995        N996   1.318       .  A
N995        C999   1.336       .  A
N996        C997   1.350       .  A
C997        C998   1.394       .  A
C997       H1000   1.082       .  S
C998        C999   1.373       .  A
C999       H1001   1.079       .  S
N1002      C1006   1.349       .  A
N1003      C1004   1.348       .  A
C1004      H1007   1.082       .  S
C1005      C1006   1.382       .  A
C1005      C1452   1.445       .  S
C1006      H1008   1.082       .  S
N1009      N1010   1.319       .  A
N1009      C1013   1.350       .  A
N1009     Cu1017   2.091       .  S
N1010      C1011   1.336       .  A
C1011      C1012   1.374       .  A
C1011      H1014   1.079       .  S
C1012      C1013   1.392       .  A
C1013      H1015   1.082       .  S
Cu1016     N1019   2.030       .  S
Cu1017     N1027   2.095   1_545  S
Cu1018     N1020   2.095       .  S
Cu1018     N1026   2.099   1_545  S
N1019      N1020   1.318       .  A
N1019      C1023   1.337       .  A
N1020      C1021   1.350       .  A
C1021      C1022   1.393       .  A
C1021      H1024   1.082       .  S
C1022      C1023   1.374       .  A
C1023      H1025   1.079       .  S
N1026      C1514   1.349       .  A
N1027      C1512   1.348       .  A
C1028      H1031   1.082       .  S
C1028      N1511   1.348       .  A
C1029      C1030   1.382       .  A
C1029      C1450   1.447       .  S
C1030      H1032   1.082       .  S
C1030      N1510   1.349       .  A
N1033      N1034   1.318       .  A
N1033      C1037   1.350       .  A
N1033     Cu1041   2.092       .  S
N1034      C1035   1.336       .  A
N1034     Cu1040   2.029       .  S
C1035      C1036   1.373       .  A
C1035      H1038   1.079       .  S
C1036      C1037   1.392       .  A
C1037      H1039   1.082       .  S
Cu1040     N1043   2.029       .  S
Cu1041     N1051   2.096       .  S
Cu1042     N1044   2.096       .  S
Cu1042     N1050   2.099       .  S
N1043      N1044   1.318       .  A
N1043      C1047   1.337       .  A
N1044      C1045   1.350       .  A
C1045      C1046   1.393       .  A
C1045      H1048   1.082       .  S
C1046      C1047   1.374       .  A
C1047      H1049   1.079       .  S
N1050      N1051   1.327       .  A
N1050      C1054   1.349       .  A
N1051      C1052   1.348       .  A
C1052      C1053   1.382       .  A
C1052      H1055   1.082       .  S
C1053      C1054   1.382       .  A
C1053      C1447   1.448       .  S
C1054      H1056   1.082       .  S
N1057      N1058   1.318       .  A
N1057      C1061   1.350       .  A
N1057     Cu1065   2.089       .  S
N1058      C1059   1.336       .  A
N1058     Cu1064   2.027       .  S
C1059      C1060   1.373       .  A
C1059      H1062   1.079       .  S
C1060      C1061   1.392       .  A
C1061      H1063   1.082       .  S
Cu1064     N1067   2.026       .  S
Cu1065     N1075   2.093   1_545  S
Cu1066     N1068   2.094       .  S
Cu1066     N1074   2.099   1_545  S
N1067      N1068   1.318       .  A
N1067      C1071   1.337       .  A
N1068      C1069   1.350       .  A
C1069      C1070   1.394       .  A
C1069      H1072   1.082       .  S
C1070      C1071   1.373       .  A
C1071      H1073   1.079       .  S
N1074      N1075   1.327       .  A
N1074      C1562   1.349       .  A
N1075      C1560   1.348       .  A
C1076      C1077   1.381       .  A
C1076      H1079   1.082       .  S
C1076      N1559   1.348       .  A
C1077      C1078   1.382       .  A
C1077      C1446   1.446       .  S
C1078      H1080   1.082       .  S
C1078      N1558   1.349       .  A
C1081      C1441   1.475       .  S
C1081      C1449   1.477       .  S
C1081      C1451   1.475       .  S
C1082      C1083   1.421       .  A
C1082      C1571   1.398       .  A
C1082      C1111   1.475       .  S
C1083      C1568   1.399       .  A
C1083      C1135   1.475       .  S
C1084      C1567   1.399       .  A
C1084      C1085   1.397       .  A
C1084      H1089   1.085       .  S
C1085      C1086   1.416       .  A
C1085      C1173   1.471       .  S
C1086      C1087   1.397       .  A
C1086      C1149   1.470       .  S
C1087      C1566   1.398       .  A
C1087      H1088   1.085       .  S
C1090      C1091   1.421       .  A
C1090      C1095   1.398       .  A
C1090      C1159   1.475       .  S
C1091      C1092   1.399       .  A
C1091      C1183   1.475       .  S
C1092      C1093   1.397       .  A
C1092      H1097   1.085       .  S
C1093      C1094   1.416       .  A
C1093      C1125   1.471       .  S
C1094      C1095   1.397       .  A
C1094      C1101   1.470       .  S
C1095      H1096   1.085       .  S
N1098      N1099   1.318       .  A
N1098      C1102   1.351       .  A
N1098     Cu1106   2.088       .  S
N1099      C1100   1.334       .  A
N1099     Cu1105   2.028       .  S
C1100      C1101   1.373       .  A
C1100      H1103   1.079       .  S
C1101      C1102   1.393       .  A
C1102      H1104   1.082       .  S
Cu1105     N1108   2.027       .  S
Cu1106     N1116   2.093       .  S
Cu1107     N1109   2.097       .  S
Cu1107     N1115   2.101       .  S
N1108      N1109   1.318       .  A
N1108      C1112   1.338       .  A
N1109      C1110   1.350       .  A
C1110      C1111   1.394       .  A
C1110      H1113   1.082       .  S
C1111      C1112   1.374       .  A
C1112      H1114   1.078       .  S
N1115      N1116   1.328       .  A
N1115      C1119   1.349       .  A
N1116      C1117   1.348       .  A
C1117      C1118   1.380       .  A
C1117      H1120   1.082       .  S
C1118      C1119   1.383       .  A
C1118      C1440   1.446       .  S
C1119      H1121   1.082       .  S
N1122      N1123   1.319       .  A
N1122      C1126   1.351       .  A
N1122     Cu1130   2.087       .  S
N1123      C1124   1.335       .  A
N1123     Cu1129   2.034       .  S
C1124      C1125   1.374       .  A
C1124      H1127   1.080       .  S
C1125      C1126   1.391       .  A
C1126      H1128   1.082       .  S
Cu1129     N1132   2.034       .  S
Cu1130     N1140   2.091       .  S
Cu1131     N1133   2.095       .  S
Cu1131     N1139   2.099       .  S
N1132      N1133   1.318       .  A
N1132      C1136   1.339       .  A
N1133      C1134   1.349       .  A
C1134      C1135   1.393       .  A
C1134      H1137   1.082       .  S
C1135      C1136   1.375       .  A
C1136      H1138   1.078       .  S
N1139      N1140   1.327       .  A
N1139      C1143   1.349       .  A
N1140      C1141   1.347       .  A
C1141      C1142   1.380       .  A
C1141      H1144   1.082       .  S
C1142      C1143   1.383       .  A
C1142      C1437   1.446       .  S
C1143      H1145   1.082       .  S
N1146      N1147   1.318       .  A
N1146      C1150   1.351       .  A
N1146     Cu1154   2.087       .  S
N1147      C1148   1.334       .  A
N1147     Cu1153   2.028       .  S
C1148      C1149   1.373       .  A
C1148      H1151   1.079       .  S
C1149      C1150   1.392       .  A
C1150      H1152   1.082       .  S
Cu1153     N1156   2.027       .  S
Cu1154     N1164   2.092       .  S
Cu1155     N1157   2.097       .  S
Cu1155     N1163   2.101       .  S
N1156      N1157   1.318       .  A
N1156      C1160   1.338       .  A
N1157      C1158   1.349       .  A
C1158      C1159   1.395       .  A
C1158      H1161   1.082       .  S
C1159      C1160   1.374       .  A
C1160      H1162   1.078       .  S
N1163      N1164   1.328       .  A
N1163      C1167   1.349       .  A
N1164      C1165   1.347       .  A
C1165      C1166   1.380       .  A
C1165      H1168   1.082       .  S
C1166      C1167   1.383       .  A
C1166      C1442   1.446       .  S
C1167      H1169   1.082       .  S
N1170      N1171   1.319       .  A
N1170      C1174   1.351       .  A
N1170     Cu1178   2.087       .  S
N1171      C1172   1.335       .  A
N1171     Cu1177   2.034       .  S
C1172      C1173   1.374       .  A
C1172      H1175   1.079       .  S
C1173      C1174   1.391       .  A
C1174      H1176   1.082       .  S
Cu1177     N1180   2.034       .  S
Cu1178     N1188   2.091       .  S
Cu1179     N1181   2.095       .  S
Cu1179     N1187   2.098       .  S
N1180      N1181   1.318       .  A
N1180      C1184   1.339       .  A
N1181      C1182   1.349       .  A
C1182      C1183   1.393       .  A
C1182      H1185   1.082       .  S
C1183      C1184   1.375       .  A
C1184      H1186   1.079       .  S
N1187      N1188   1.327       .  A
N1187      C1191   1.349       .  A
N1188      C1189   1.348       .  A
C1189      C1190   1.381       .  A
C1189      H1192   1.082       .  S
C1190      C1191   1.383       .  A
C1190      C1443   1.446       .  S
C1191      H1193   1.082       .  S
C1194      C1195   1.417       .  A
C1194      C1199   1.397       .  A
C1194      C1213   1.470       .  S
C1195      C1196   1.397       .  A
C1195      C1261   1.471       .  S
C1196      C1197   1.397       .  A
C1196      H1201   1.085       .  S
C1197      C1198   1.418       .  A
C1197      C1247   1.471       .  S
C1198      C1199   1.397       .  A
C1198      C1295   1.472       .  S
C1199      H1200   1.085       .  S
C1202      C1203   1.417       .  A
C1202      C1207   1.397       .  A
C1202      C1237   1.471       .  S
C1203      C1204   1.397       .  A
C1203      C1285   1.471       .  S
C1204      C1205   1.397       .  A
C1204      H1209   1.085       .  S
C1205      C1206   1.418       .  A
C1205      C1223   1.471       .  S
C1206      C1207   1.397       .  A
C1206      C1271   1.472       .  S
C1207      H1208   1.085       .  S
N1210      N1211   1.318       .  A
N1210      C1214   1.350       .  A
N1210     Cu1218   2.090       .  S
N1211      C1212   1.336       .  A
N1211     Cu1217   2.026   1_655  S
C1212      C1213   1.373       .  A
C1212      H1215   1.079       .  S
C1213      C1214   1.393       .  A
C1214      H1216   1.082       .  S
Cu1218     N1228   2.095       .  S
Cu1219     N1221   2.092       .  S
Cu1219     N1227   2.096       .  S
N1220      N1221   1.318       .  A
N1220      C1224   1.336       .  A
N1221      C1222   1.350       .  A
C1222      C1223   1.393       .  A
C1222      H1225   1.082       .  S
C1223      C1224   1.373       .  A
C1224      H1226   1.079       .  S
N1227      C1715   1.348       .  A
N1228      C1713   1.348       .  A
C1229      C1230   1.381   1_655  A
C1229      H1232   1.082       .  S
C1229      N1712   1.348       .  A
C1230      C1436   1.445       .  S
C1231      H1233   1.082       .  S
C1231      N1711   1.348       .  A
N1234      N1235   1.318       .  A
N1234      C1238   1.350       .  A
N1234     Cu1242   2.091       .  S
N1235      C1236   1.336       .  A
N1235     Cu1241   2.026       .  S
C1236      C1237   1.373       .  A
C1236      H1239   1.079       .  S
C1237      C1238   1.393       .  A
C1238      H1240   1.082       .  S
Cu1241     N1244   2.026       .  S
Cu1242     N1252   2.095       .  S
Cu1243     N1245   2.092       .  S
Cu1243     N1251   2.096       .  S
N1244      N1245   1.318       .  A
N1244      C1248   1.336       .  A
N1245      C1246   1.350       .  A
C1246      C1247   1.393       .  A
C1246      H1249   1.082       .  S
C1247      C1248   1.373       .  A
C1248      H1250   1.079       .  S
N1251      N1252   1.327       .  A
N1251      C1255   1.348       .  A
N1252      C1253   1.348       .  A
C1253      C1254   1.381       .  A
C1253      H1256   1.082       .  S
C1254      C1255   1.381       .  A
C1254      C1433   1.446       .  S
C1255      H1257   1.082       .  S
N1258      N1259   1.318       .  A
N1258      C1262   1.350       .  A
N1258     Cu1266   2.092       .  S
N1259      C1260   1.337       .  A
N1259     Cu1265   2.030   1_655  S
C1260      C1261   1.374       .  A
C1260      H1263   1.080       .  S
C1261      C1262   1.392       .  A
C1262      H1264   1.082       .  S
Cu1266     N1276   2.096       .  S
Cu1267     N1269   2.094       .  S
Cu1267     N1275   2.098       .  S
N1268      N1269   1.318       .  A
N1268      C1272   1.337       .  A
N1269      C1270   1.350       .  A
C1270      C1271   1.393       .  A
C1270      H1273   1.082       .  S
C1271      C1272   1.374       .  A
C1272      H1274   1.079       .  S
N1275      C1279   1.349       .  A
N1276      C1277   1.348       .  A
C1277      C1278   1.382   1_655  A
C1277      H1280   1.082       .  S
C1278      C1432   1.447       .  S
C1279      H1281   1.082       .  S
N1282      N1283   1.318       .  A
N1282      C1286   1.350       .  A
N1282     Cu1290   2.093       .  S
N1283      C1284   1.337       .  A
N1283     Cu1289   2.029       .  S
C1284      C1285   1.374       .  A
C1284      H1287   1.079       .  S
C1285      C1286   1.392       .  A
C1286      H1288   1.082       .  S
Cu1289     N1292   2.029       .  S
Cu1290     N1300   2.097       .  S
Cu1291     N1293   2.094       .  S
Cu1291     N1299   2.098       .  S
N1292      N1293   1.318       .  A
N1292      C1296   1.337       .  A
N1293      C1294   1.350       .  A
C1294      C1295   1.393       .  A
C1294      H1297   1.082       .  S
C1295      C1296   1.374       .  A
C1296      H1298   1.079       .  S
N1299      N1300   1.327       .  A
N1299      C1787   1.349       .  A
N1300      C1785   1.349       .  A
C1301      C1302   1.382       .  A
C1301      H1304   1.082       .  S
C1301      N1784   1.349       .  A
C1302      C1303   1.382       .  A
C1302      C1429   1.447       .  S
C1303      H1305   1.082       .  S
C1303      N1783   1.349       .  A
C1306      C1431   1.477   1_655  S
C1306      C1435   1.475   1_655  S
C1306      C1438   1.476       .  S
C1307      C1312   1.398   1_554  A
C1307      C1336   1.474       .  S
C1308      C1309   1.398   1_554  A
C1308      C1384   1.474       .  S
C1309      C1310   1.397       .  A
C1309      H1314   1.085       .  S
C1310      C1360   1.471       .  S
C1311      C1312   1.397       .  A
C1311      C1408   1.470       .  S
C1312      H1313   1.085       .  S
C1315      C1804   1.398   1_556  A
C1315      C1398   1.474       .  S
C1316      C1801   1.399   1_556  A
C1316      C1350   1.474       .  S
C1317      C1800   1.399   1_554  A
C1317      C1318   1.397   1_565  A
C1317      H1322   1.085       .  S
C1318      C1374   1.471       .  S
C1319      C1320   1.397   1_545  A
C1319      C1326   1.470       .  S
C1320      C1799   1.398   1_554  A
C1320      H1321   1.085       .  S
N1323      N1324   1.318       .  A
N1323      C1327   1.350       .  A
N1323     Cu1331   2.090       .  S
N1324      C1325   1.335       .  A
N1324     Cu1330   2.026       .  S
C1325      C1326   1.373       .  A
C1325      H1328   1.079   1_554  S
C1326      C1327   1.393       .  A
C1327      H1329   1.082       .  S
Cu1330     N1333   2.025       .  S
Cu1331     N1341   2.094       .  S
Cu1332     N1334   2.097       .  S
Cu1332     N1340   2.101       .  S
N1333      N1334   1.318       .  A
N1333      C1337   1.337       .  A
N1334      C1335   1.350       .  A
C1335      C1336   1.394       .  A
C1335      H1338   1.082       .  S
C1336      C1337   1.374       .  A
C1337      H1339   1.078   1_554  S
N1340      N1341   1.328       .  A
N1340      C1344   1.349       .  A
N1341      C1342   1.348       .  A
C1342      C1343   1.381       .  A
C1342      H1345   1.082       .  S
C1343      C1344   1.383       .  A
C1343      C1428   1.446       .  S
C1344      H1346   1.082       .  S
N1347      N1348   1.318       .  A
N1347      C1351   1.350       .  A
N1347     Cu1355   2.094       .  S
N1348      C1349   1.338       .  A
N1348     Cu1354   2.033       .  S
C1349      C1350   1.375       .  A
C1349      H1352   1.079   1_556  S
C1350      C1351   1.393       .  A
C1351      H1353   1.082       .  S
Cu1354     N1357   2.033       .  S
Cu1355     N1365   2.098       .  S
Cu1356     N1358   2.088       .  S
Cu1356     N1364   2.092       .  S
N1357      N1358   1.319       .  A
N1357      C1361   1.336       .  A
N1358      C1359   1.350       .  A
C1359      C1360   1.391       .  A
C1359      H1362   1.082       .  S
C1360      C1361   1.374       .  A
C1361      H1363   1.080   1_556  S
N1364      N1365   1.327       .  A
N1364      C1368   1.348       .  A
N1365      C1366   1.349       .  A
C1366      C1367   1.383       .  A
C1366      H1369   1.082       .  S
C1367      C1368   1.381       .  A
C1367      C1425   1.446       .  S
C1368      H1370   1.082       .  S
N1371      N1372   1.319       .  A
N1371      C1375   1.351       .  A
N1371     Cu1379   2.088       .  S
N1372      C1373   1.336       .  A
N1372     Cu1378   2.033       .  S
C1373      C1374   1.374       .  A
C1373      H1376   1.080   1_554  S
C1374      C1375   1.391       .  A
C1375      H1377   1.082       .  S
Cu1378     N1381   2.033       .  S
Cu1379     N1389   2.092       .  S
Cu1380     N1382   2.094       .  S
Cu1380     N1388   2.099       .  S
N1381      N1382   1.318       .  A
N1381      C1385   1.338       .  A
N1382      C1383   1.350       .  A
C1383      C1384   1.393       .  A
C1383      H1386   1.082       .  S
C1384      C1385   1.375       .  A
C1385      H1387   1.079   1_554  S
N1388      N1389   1.327       .  A
N1388      C1392   1.349       .  A
N1389      C1390   1.348       .  A
C1390      C1391   1.381       .  A
C1390      H1393   1.082       .  S
C1391      C1392   1.383       .  A
C1391      C1423   1.446       .  S
C1392      H1394   1.082       .  S
N1395      N1396   1.318       .  A
N1395      C1399   1.350       .  A
N1395     Cu1403   2.097       .  S
N1396      C1397   1.337       .  A
N1396     Cu1402   2.025       .  S
C1397      C1398   1.374       .  A
C1397      H1400   1.078   1_556  S
C1398      C1399   1.394       .  A
C1399      H1401   1.082       .  S
Cu1402     N1405   2.026       .  S
Cu1403     N1413   2.101       .  S
Cu1404     N1406   2.088       .  S
Cu1404     N1412   2.092       .  S
N1405      N1406   1.318       .  A
N1405      C1409   1.335       .  A
N1406      C1407   1.350       .  A
C1407      C1408   1.393       .  A
C1407      H1410   1.082       .  S
C1408      C1409   1.373       .  A
C1409      H1411   1.079   1_556  S
N1412      N1413   1.328       .  A
N1412      C1416   1.347       .  A
N1413      C1414   1.349       .  A
C1414      C1415   1.383       .  A
C1414      H1417   1.082       .  S
C1415      C1416   1.380       .  A
C1415      C1421   1.446       .  S
C1416      H1418   1.082       .  S
C1419      C1424   1.476       .  S
C1419      C1427   1.476       .  S
C1419      C1430   1.477       .  S
C1419      C1434   1.475       .  S
C1420      C1422   1.475       .  S
C1420      C1426   1.476       .  S
C1420      C1445   1.475       .  S
C1420      C1448   1.477       .  S
C1421      C1422   1.212       .  T
C1423      C1424   1.212       .  T
C1425      C1426   1.212       .  T
C1427      C1428   1.212       .  T
C1429      C1430   1.213       .  T
C1431      C1432   1.213       .  T
C1433      C1434   1.212       .  T
C1435      C1436   1.212       .  T
C1437      C1438   1.212       .  T
C1439      C1440   1.212       .  T
C1441      C1442   1.212       .  T
C1443      C1444   1.212       .  T
C1445      C1446   1.212       .  T
C1447      C1448   1.213       .  T
C1449      C1450   1.213       .  T
C1451      C1452   1.212       .  T
C1453      C1454   1.416       .  A
C1453      C1458   1.397       .  A
C1453      C1544   1.470       .  S
C1454      C1455   1.396       .  A
C1454      C1520   1.471       .  S
C1455      C1456   1.398       .  A
C1455      H1460   1.085       .  S
C1456      C1457   1.419       .  A
C1456      C1482   1.472       .  S
C1457      C1458   1.398       .  A
C1457      C1506   1.473       .  S
C1458      H1459   1.085       .  S
C1461      C1462   1.416       .  A
C1461      C1466   1.396       .  A
C1461      C1496   1.471       .  S
C1462      C1463   1.397       .  A
C1462      C1472   1.470       .  S
C1463      C1464   1.398       .  A
C1463      H1468   1.085       .  S
C1464      C1465   1.419       .  A
C1464      C1530   1.473       .  S
C1465      C1466   1.398       .  A
C1465      C1554   1.472       .  S
C1466      H1467   1.085       .  S
N1469      N1470   1.318       .  A
N1469      C1473   1.350       .  A
N1469     Cu1477   2.089       .  S
N1470      C1471   1.336       .  A
C1471      C1472   1.373       .  A
C1471      H1474   1.079       .  S
C1472      C1473   1.392       .  A
C1473      H1475   1.082       .  S
Cu1476     N1479   2.026       .  S
Cu1477     N1487   2.093       .  S
Cu1478     N1480   2.094       .  S
Cu1478     N1486   2.099       .  S
N1479      N1480   1.318       .  A
N1479      C1483   1.336       .  A
N1480      C1481   1.350       .  A
C1481      C1482   1.394       .  A
C1481      H1484   1.082       .  S
C1482      C1483   1.373       .  A
C1483      H1485   1.079       .  S
N1486      C1490   1.349       .  A
N1487      C1488   1.348       .  A
C1488      H1491   1.082       .  S
C1489      C1490   1.382       .  A
C1489      C1936   1.445       .  S
C1490      H1492   1.082       .  S
N1493      N1494   1.319       .  A
N1493      C1497   1.350       .  A
N1493     Cu1501   2.091       .  S
N1494      C1495   1.336       .  A
C1495      C1496   1.374       .  A
C1495      H1498   1.080       .  S
C1496      C1497   1.392       .  A
C1497      H1499   1.082       .  S
Cu1500     N1503   2.030       .  S
Cu1501     N1511   2.095       .  S
Cu1502     N1504   2.095       .  S
Cu1502     N1510   2.099       .  S
N1503      N1504   1.318       .  A
N1503      C1507   1.337       .  A
N1504      C1505   1.350       .  A
C1505      C1506   1.393       .  A
C1505      H1508   1.082       .  S
C1506      C1507   1.374       .  A
C1507      H1509   1.079       .  S
C1512      H1515   1.082       .  S
C1513      C1514   1.382       .  A
C1513      C1934   1.447       .  S
C1514      H1516   1.082       .  S
N1517      N1518   1.318       .  A
N1517      C1521   1.350       .  A
N1517     Cu1525   2.092       .  S
N1518      C1519   1.336       .  A
N1518     Cu1524   2.029       .  S
C1519      C1520   1.373       .  A
C1519      H1522   1.079       .  S
C1520      C1521   1.392       .  A
C1521      H1523   1.082       .  S
Cu1524     N1527   2.029       .  S
Cu1525     N1535   2.096       .  S
Cu1526     N1528   2.096       .  S
Cu1526     N1534   2.099       .  S
N1527      N1528   1.318       .  A
N1527      C1531   1.337       .  A
N1528      C1529   1.350       .  A
C1529      C1530   1.393       .  A
C1529      H1532   1.082       .  S
C1530      C1531   1.374       .  A
C1531      H1533   1.079       .  S
N1534      N1535   1.327       .  A
N1534      C1538   1.349       .  A
N1535      C1536   1.348       .  A
C1536      C1537   1.382       .  A
C1536      H1539   1.082       .  S
C1537      C1538   1.382       .  A
C1537      C1931   1.448       .  S
C1538      H1540   1.082       .  S
N1541      N1542   1.318       .  A
N1541      C1545   1.350       .  A
N1541     Cu1549   2.089       .  S
N1542      C1543   1.336       .  A
N1542     Cu1548   2.027       .  S
C1543      C1544   1.373       .  A
C1543      H1546   1.079       .  S
C1544      C1545   1.392       .  A
C1545      H1547   1.082       .  S
Cu1548     N1551   2.026       .  S
Cu1549     N1559   2.093       .  S
Cu1550     N1552   2.094       .  S
Cu1550     N1558   2.099       .  S
N1551      N1552   1.318       .  A
N1551      C1555   1.337       .  A
N1552      C1553   1.350       .  A
C1553      C1554   1.394       .  A
C1553      H1556   1.082       .  S
C1554      C1555   1.373       .  A
C1555      H1557   1.079       .  S
N1558      N1559   1.327       .  A
C1560      C1561   1.381       .  A
C1560      H1563   1.082       .  S
C1561      C1562   1.382       .  A
C1561      C1930   1.446       .  S
C1562      H1564   1.082       .  S
C1565      C1925   1.475       .  S
C1565      C1933   1.477       .  S
C1565      C1935   1.475       .  S
C1566      C1567   1.421       .  A
C1566      C1595   1.475       .  S
C1567      C1619   1.475       .  S
C1568      C1569   1.397   1_545  A
C1568      H1573   1.085       .  S
C1569      C1570   1.416       .  A
C1569      C1657   1.471       .  S
C1570      C1571   1.397   1_565  A
C1570      C1633   1.470       .  S
C1571      H1572   1.085       .  S
C1574      C1575   1.421       .  A
C1574      C1579   1.398       .  A
C1574      C1643   1.475       .  S
C1575      C1576   1.399       .  A
C1575      C1667   1.475       .  S
C1576      C1577   1.397       .  A
C1576      H1581   1.085       .  S
C1577      C1578   1.416       .  A
C1577      C1609   1.471       .  S
C1578      C1579   1.397       .  A
C1578      C1585   1.470       .  S
C1579      H1580   1.085       .  S
N1582      N1583   1.318       .  A
N1582      C1586   1.351       .  A
N1582     Cu1590   2.088       .  S
N1583      C1584   1.334       .  A
N1583     Cu1589   2.028       .  S
C1584      C1585   1.373       .  A
C1584      H1587   1.079       .  S
C1585      C1586   1.393       .  A
C1586      H1588   1.082       .  S
Cu1589     N1592   2.027       .  S
Cu1590     N1600   2.093       .  S
Cu1591     N1593   2.097       .  S
Cu1591     N1599   2.101       .  S
N1592      N1593   1.318       .  A
N1592      C1596   1.338       .  A
N1593      C1594   1.350       .  A
C1594      C1595   1.394       .  A
C1594      H1597   1.082       .  S
C1595      C1596   1.374       .  A
C1596      H1598   1.078       .  S
N1599      N1600   1.328       .  A
N1599      C1603   1.349       .  A
N1600      C1601   1.348       .  A
C1601      C1602   1.380       .  A
C1601      H1604   1.082       .  S
C1602      C1603   1.383       .  A
C1602      C1924   1.446       .  S
C1603      H1605   1.082       .  S
N1606      N1607   1.319       .  A
N1606      C1610   1.351       .  A
N1606     Cu1614   2.087       .  S
N1607      C1608   1.335       .  A
N1607     Cu1613   2.034       .  S
C1608      C1609   1.374       .  A
C1608      H1611   1.080       .  S
C1609      C1610   1.391       .  A
C1610      H1612   1.082       .  S
Cu1613     N1616   2.034       .  S
Cu1614     N1624   2.091       .  S
Cu1615     N1617   2.095       .  S
Cu1615     N1623   2.099       .  S
N1616      N1617   1.318       .  A
N1616      C1620   1.339       .  A
N1617      C1618   1.349       .  A
C1618      C1619   1.393       .  A
C1618      H1621   1.082       .  S
C1619      C1620   1.375       .  A
C1620      H1622   1.078       .  S
N1623      N1624   1.327       .  A
N1623      C1627   1.349       .  A
N1624      C1625   1.347       .  A
C1625      C1626   1.380       .  A
C1625      H1628   1.082       .  S
C1626      C1627   1.383       .  A
C1626      C1921   1.446       .  S
C1627      H1629   1.082       .  S
N1630      N1631   1.318       .  A
N1630      C1634   1.351       .  A
N1630     Cu1638   2.087       .  S
N1631      C1632   1.334       .  A
N1631     Cu1637   2.028       .  S
C1632      C1633   1.373       .  A
C1632      H1635   1.079       .  S
C1633      C1634   1.392       .  A
C1634      H1636   1.082       .  S
Cu1637     N1640   2.027       .  S
Cu1638     N1648   2.092       .  S
Cu1639     N1641   2.097       .  S
Cu1639     N1647   2.101       .  S
N1640      N1641   1.318       .  A
N1640      C1644   1.338       .  A
N1641      C1642   1.349       .  A
C1642      C1643   1.395       .  A
C1642      H1645   1.082       .  S
C1643      C1644   1.374       .  A
C1644      H1646   1.078       .  S
N1647      N1648   1.328       .  A
N1647      C1651   1.349       .  A
N1648      C1649   1.347       .  A
C1649      C1650   1.380       .  A
C1649      H1652   1.082       .  S
C1650      C1651   1.383       .  A
C1650      C1926   1.446       .  S
C1651      H1653   1.082       .  S
N1654      N1655   1.319       .  A
N1654      C1658   1.351       .  A
N1654     Cu1662   2.087       .  S
N1655      C1656   1.335       .  A
N1655     Cu1661   2.034       .  S
C1656      C1657   1.374       .  A
C1656      H1659   1.079       .  S
C1657      C1658   1.391       .  A
C1658      H1660   1.082       .  S
Cu1661     N1664   2.034       .  S
Cu1662     N1672   2.091       .  S
Cu1663     N1665   2.095       .  S
Cu1663     N1671   2.098       .  S
N1664      N1665   1.318       .  A
N1664      C1668   1.339       .  A
N1665      C1666   1.349       .  A
C1666      C1667   1.393       .  A
C1666      H1669   1.082       .  S
C1667      C1668   1.375       .  A
C1668      H1670   1.079       .  S
N1671      N1672   1.327       .  A
N1671      C1675   1.349       .  A
N1672      C1673   1.348       .  A
C1673      C1674   1.381       .  A
C1673      H1676   1.082       .  S
C1674      C1675   1.383       .  A
C1674      C1927   1.446       .  S
C1675      H1677   1.082       .  S
C1678      C1679   1.417       .  A
C1678      C1683   1.397       .  A
C1678      C1697   1.470       .  S
C1679      C1680   1.397       .  A
C1679      C1745   1.471       .  S
C1680      C1681   1.397       .  A
C1680      H1685   1.085       .  S
C1681      C1682   1.418       .  A
C1681      C1731   1.471       .  S
C1682      C1683   1.397       .  A
C1682      C1779   1.472       .  S
C1683      H1684   1.085       .  S
C1686      C1687   1.417       .  A
C1686      C1691   1.397       .  A
C1686      C1721   1.471       .  S
C1687      C1688   1.397       .  A
C1687      C1769   1.471       .  S
C1688      C1689   1.397       .  A
C1688      H1693   1.085       .  S
C1689      C1690   1.418       .  A
C1689      C1707   1.471       .  S
C1690      C1691   1.397       .  A
C1690      C1755   1.472       .  S
C1691      H1692   1.085       .  S
N1694      N1695   1.318       .  A
N1694      C1698   1.350       .  A
N1694     Cu1702   2.090       .  S
N1695      C1696   1.336       .  A
N1695     Cu1701   2.026   1_655  S
C1696      C1697   1.373       .  A
C1696      H1699   1.079       .  S
C1697      C1698   1.393       .  A
C1698      H1700   1.082       .  S
Cu1702     N1712   2.095   1_565  S
Cu1703     N1705   2.092       .  S
Cu1703     N1711   2.097   1_565  S
N1704      N1705   1.318       .  A
N1704      C1708   1.336       .  A
N1705      C1706   1.350       .  A
C1706      C1707   1.393       .  A
C1706      H1709   1.082       .  S
C1707      C1708   1.373       .  A
C1708      H1710   1.079       .  S
C1713      C1714   1.381   1_655  A
C1713      H1716   1.082       .  S
C1714      C1920   1.445       .  S
C1715      H1717   1.082       .  S
N1718      N1719   1.318       .  A
N1718      C1722   1.350       .  A
N1718     Cu1726   2.091       .  S
N1719      C1720   1.336       .  A
N1719     Cu1725   2.026       .  S
C1720      C1721   1.373       .  A
C1720      H1723   1.079       .  S
C1721      C1722   1.393       .  A
C1722      H1724   1.082       .  S
Cu1725     N1728   2.026       .  S
Cu1726     N1736   2.095       .  S
Cu1727     N1729   2.092       .  S
Cu1727     N1735   2.096       .  S
N1728      N1729   1.318       .  A
N1728      C1732   1.336       .  A
N1729      C1730   1.350       .  A
C1730      C1731   1.393       .  A
C1730      H1733   1.082       .  S
C1731      C1732   1.373       .  A
C1732      H1734   1.079       .  S
N1735      N1736   1.327       .  A
N1735      C1739   1.348       .  A
N1736      C1737   1.348       .  A
C1737      C1738   1.381       .  A
C1737      H1740   1.082       .  S
C1738      C1739   1.381       .  A
C1738      C1917   1.446       .  S
C1739      H1741   1.082       .  S
N1742      N1743   1.318       .  A
N1742      C1746   1.350       .  A
N1742     Cu1750   2.092       .  S
N1743      C1744   1.337       .  A
N1743     Cu1749   2.030   1_655  S
C1744      C1745   1.374       .  A
C1744      H1747   1.080       .  S
C1745      C1746   1.392       .  A
C1746      H1748   1.082       .  S
Cu1750     N1760   2.096       .  S
Cu1751     N1753   2.094       .  S
Cu1751     N1759   2.098       .  S
N1752      N1753   1.318       .  A
N1752      C1756   1.337       .  A
N1753      C1754   1.350       .  A
C1754      C1755   1.393       .  A
C1754      H1757   1.082       .  S
C1755      C1756   1.374       .  A
C1756      H1758   1.079       .  S
N1759      C1763   1.349       .  A
N1760      C1761   1.348       .  A
C1761      C1762   1.382   1_655  A
C1761      H1764   1.082       .  S
C1762      C1916   1.447       .  S
C1763      H1765   1.082       .  S
N1766      N1767   1.318       .  A
N1766      C1770   1.350       .  A
N1766     Cu1774   2.093       .  S
N1767      C1768   1.337       .  A
N1767     Cu1773   2.029       .  S
C1768      C1769   1.374       .  A
C1768      H1771   1.079       .  S
C1769      C1770   1.392       .  A
C1770      H1772   1.082       .  S
Cu1773     N1776   2.029       .  S
Cu1774     N1784   2.097   1_565  S
Cu1775     N1777   2.094       .  S
Cu1775     N1783   2.098   1_565  S
N1776      N1777   1.318       .  A
N1776      C1780   1.337       .  A
N1777      C1778   1.350       .  A
C1778      C1779   1.393       .  A
C1778      H1781   1.082       .  S
C1779      C1780   1.374       .  A
C1780      H1782   1.079       .  S
N1783      N1784   1.327       .  A
C1785      C1786   1.382       .  A
C1785      H1788   1.082       .  S
C1786      C1787   1.382       .  A
C1786      C1913   1.447       .  S
C1787      H1789   1.082       .  S
C1790      C1915   1.477   1_655  S
C1790      C1919   1.475   1_655  S
C1790      C1922   1.476       .  S
C1791      C1796   1.398   1_554  A
C1791      C1820   1.474       .  S
C1792      C1793   1.398   1_554  A
C1792      C1868   1.474       .  S
C1793      C1794   1.397       .  A
C1793      H1798   1.085       .  S
C1794      C1844   1.471       .  S
C1795      C1796   1.397       .  A
C1795      C1892   1.470       .  S
C1796      H1797   1.085       .  S
C1799      C1882   1.474       .  S
C1800      C1834   1.474       .  S
C1801      C1802   1.397       .  A
C1801      H1806   1.085       .  S
C1802      C1858   1.471       .  S
C1803      C1804   1.397       .  A
C1803      C1810   1.470       .  S
C1804      H1805   1.085       .  S
N1807      N1808   1.318       .  A
N1807      C1811   1.350       .  A
N1807     Cu1815   2.090       .  S
N1808      C1809   1.335       .  A
N1808     Cu1814   2.026       .  S
C1809      C1810   1.373       .  A
C1809      H1812   1.079   1_554  S
C1810      C1811   1.393       .  A
C1811      H1813   1.082       .  S
Cu1814     N1817   2.025       .  S
Cu1815     N1825   2.094       .  S
Cu1816     N1818   2.097       .  S
Cu1816     N1824   2.101       .  S
N1817      N1818   1.318       .  A
N1817      C1821   1.337       .  A
N1818      C1819   1.350       .  A
C1819      C1820   1.394       .  A
C1819      H1822   1.082       .  S
C1820      C1821   1.374       .  A
C1821      H1823   1.078   1_554  S
N1824      N1825   1.328       .  A
N1824      C1828   1.349       .  A
N1825      C1826   1.348       .  A
C1826      C1827   1.381       .  A
C1826      H1829   1.082       .  S
C1827      C1828   1.383       .  A
C1827      C1912   1.446       .  S
C1828      H1830   1.082       .  S
N1831      N1832   1.318       .  A
N1831      C1835   1.350       .  A
N1831     Cu1839   2.094       .  S
N1832      C1833   1.338       .  A
N1832     Cu1838   2.033       .  S
C1833      C1834   1.375       .  A
C1833      H1836   1.079   1_556  S
C1834      C1835   1.393       .  A
C1835      H1837   1.082       .  S
Cu1838     N1841   2.033       .  S
Cu1839     N1849   2.098       .  S
Cu1840     N1842   2.088       .  S
Cu1840     N1848   2.092       .  S
N1841      N1842   1.319       .  A
N1841      C1845   1.336       .  A
N1842      C1843   1.350       .  A
C1843      C1844   1.391       .  A
C1843      H1846   1.082       .  S
C1844      C1845   1.374       .  A
C1845      H1847   1.080   1_556  S
N1848      N1849   1.327       .  A
N1848      C1852   1.348       .  A
N1849      C1850   1.349       .  A
C1850      C1851   1.383       .  A
C1850      H1853   1.082       .  S
C1851      C1852   1.381       .  A
C1851      C1909   1.446       .  S
C1852      H1854   1.082       .  S
N1855      N1856   1.319       .  A
N1855      C1859   1.351       .  A
N1855     Cu1863   2.088       .  S
N1856      C1857   1.336       .  A
N1856     Cu1862   2.033       .  S
C1857      C1858   1.374       .  A
C1857      H1860   1.080   1_554  S
C1858      C1859   1.391       .  A
C1859      H1861   1.082       .  S
Cu1862     N1865   2.033       .  S
Cu1863     N1873   2.092       .  S
Cu1864     N1866   2.094       .  S
Cu1864     N1872   2.099       .  S
N1865      N1866   1.318       .  A
N1865      C1869   1.338       .  A
N1866      C1867   1.350       .  A
C1867      C1868   1.393       .  A
C1867      H1870   1.082       .  S
C1868      C1869   1.375       .  A
C1869      H1871   1.079   1_554  S
N1872      N1873   1.327       .  A
N1872      C1876   1.349       .  A
N1873      C1874   1.348       .  A
C1874      C1875   1.381       .  A
C1874      H1877   1.082       .  S
C1875      C1876   1.383       .  A
C1875      C1907   1.446       .  S
C1876      H1878   1.082       .  S
N1879      N1880   1.318       .  A
N1879      C1883   1.350       .  A
N1879     Cu1887   2.097       .  S
N1880      C1881   1.337       .  A
N1880     Cu1886   2.025       .  S
C1881      C1882   1.374       .  A
C1881      H1884   1.078   1_556  S
C1882      C1883   1.394       .  A
C1883      H1885   1.082       .  S
Cu1886     N1889   2.026       .  S
Cu1887     N1897   2.101       .  S
Cu1888     N1890   2.088       .  S
Cu1888     N1896   2.092       .  S
N1889      N1890   1.318       .  A
N1889      C1893   1.335       .  A
N1890      C1891   1.350       .  A
C1891      C1892   1.393       .  A
C1891      H1894   1.082       .  S
C1892      C1893   1.373       .  A
C1893      H1895   1.079   1_556  S
N1896      N1897   1.328       .  A
N1896      C1900   1.347       .  A
N1897      C1898   1.349       .  A
C1898      C1899   1.383       .  A
C1898      H1901   1.082       .  S
C1899      C1900   1.380       .  A
C1899      C1905   1.446       .  S
C1900      H1902   1.082       .  S
C1903      C1908   1.476       .  S
C1903      C1911   1.476       .  S
C1903      C1914   1.477       .  S
C1903      C1918   1.475       .  S
C1904      C1906   1.475       .  S
C1904      C1910   1.476       .  S
C1904      C1929   1.475       .  S
C1904      C1932   1.477       .  S
C1905      C1906   1.212       .  T
C1907      C1908   1.212       .  T
C1909      C1910   1.212       .  T
C1911      C1912   1.212       .  T
C1913      C1914   1.213       .  T
C1915      C1916   1.213       .  T
C1917      C1918   1.212       .  T
C1919      C1920   1.212       .  T
C1921      C1922   1.212       .  T
C1923      C1924   1.212       .  T
C1925      C1926   1.212       .  T
C1927      C1928   1.212       .  T
C1929      C1930   1.212       .  T
C1931      C1932   1.213       .  T
C1933      C1934   1.213       .  T
C1935      C1936   1.212       .  T
