geometry optimzed in LAMMPS
_audit_creation_date              2020-11-30 
_audit_creation_method            'lammps2cif' 
_symmetry_space_group_name_H-M    'P1' 
_symmetry_Int_Tables_number       1 
_symmetry_cell_setting            triclinic 
loop_ 
_symmetry_equiv_pos_as_xyz 
  x,y,z 
_cell_length_a                    31.59512268592218 
_cell_length_b                    31.50365411354707 
_cell_length_c                    50.887752803191155 
_cell_angle_alpha                 90.38394776051514 
_cell_angle_beta                  89.91781708102256 
_cell_angle_gamma                 89.5769866491212 
loop_ 
_atom_site_label 
_atom_site_type_symbol 
_atom_site_fract_x 
_atom_site_fract_y 
_atom_site_fract_z 
_atom_site_charge 
C1          C  0.17835624  0.07428648  0.20738272     0.42480
N2          N  0.20710097  0.10742429  0.17561224     0.01370
C3          C  0.25557811  0.05947028  0.04658833    -0.06510
H4          H  0.33842185  0.97500303  0.10768227     0.06860
C5          C  0.39749442  0.12622385  0.14475866    -0.06860
Co6        Co  0.20573460  0.06411348  0.12296978     0.74180
N7          N  0.28947965  0.02165083  0.11590239    -0.26040
Co8        Co  0.30544310  0.07804340  0.09503265     0.74070
C9          C  0.41773330  0.08577984  0.13856575     0.42580
N10         N  0.30933617  0.17622144  0.16786379     0.00990
N11         N  0.35735623  0.08927669  0.11926697     0.01090
N12         N  0.19230238  0.03982433  0.06300454    -0.46880
H13         H  0.16081962  0.01835068  0.17967406     0.06850
N14         N  0.25221894  0.01818284  0.12762176     0.01380
N15         N  0.31795123  0.13534139  0.07425179     0.01120
C16         C  0.32690525  0.18491482  0.04564040     0.42720
N17         N  0.27206300  0.17185821  0.17898261    -0.25490
C18         C  0.12238489  0.10946643  0.10842845    -0.06410
N19         N  0.19764519  0.10997930  0.20062270    -0.46600
N20         N  0.31851384  0.14278991  0.04844101    -0.46820
C21         C  0.10084707  0.14831842  0.11687402     0.42490
N22         N  0.21609391  0.05813383  0.08149652     0.01360
N23         N  0.23183241  0.21389763  0.13398226    -0.25510
N24         N  0.19649672  0.07126785  0.16435215    -0.26010
N25         N  0.26954907  0.21935621  0.12367991     0.01000
H26         H  0.17570813  0.25288375  0.13615905     0.06890
H27         H  0.33423278  0.23566225  0.07756263     0.06930
N28         N  0.25380807  0.06755397  0.07213659    -0.26060
N29         N  0.36083840  0.12573306  0.13181369    -0.25670
N30         N  0.16478315  0.14830028  0.13169122     0.01370
C31         C  0.27938947  0.95572440  0.13156401     0.42770
C32         C  0.27752072  0.17360928  0.20528473    -0.06920
N33         N  0.32339212  0.17052683  0.08790228    -0.25670
H34         H  0.41012514  0.15307056  0.15544507     0.06910
N35         N  0.24500849  0.97976133  0.13683845    -0.46890
H36         H  0.25297039  0.16970641  0.21987078     0.06900
C37         C  0.23519680  0.27601227  0.11447860     0.42600
C38         C  0.17661119  0.04824269  0.18298772    -0.06420
Co39       Co  0.21854369  0.16080358  0.15522626     0.73820
N40         N  0.34054577  0.18044107  0.18487465    -0.46610
C41         C  0.21522079  0.04121237  0.04025808     0.42870
N42         N  0.12898853  0.17061861  0.13143390    -0.46600
Co43       Co  0.31634921  0.17339181  0.12786192     0.73890
C44         C  0.33014319  0.20289956  0.07172877    -0.06920
C45         C  0.30882589  0.98335734  0.11715817    -0.06490
N46         N  0.16116505  0.11195121  0.11880160    -0.26010
N47         N  0.39136126  0.06493057  0.12209055    -0.46780
H48         H  0.28410065  0.05998168  0.03480171     0.06870
C49         C  0.20775373  0.24791850  0.12922868    -0.06900
Cl50       Cl  0.26130285  0.11869765  0.12516113    -0.49900
C51         C  0.32331763  0.17928778  0.20901405     0.42630
H52         H  0.10925861  0.08153915  0.09913742     0.06840
N53         N  0.27316489  0.25648827  0.11208325    -0.46610
C54         C  0.17819555  0.55146292  0.20826718     0.42480
N55         N  0.22648809  0.56714200  0.17983473     0.01370
C56         C  0.23409477  0.74797748  0.10383148    -0.06510
H57         H  0.10335862  0.64168902  0.08873097     0.06860
C58         C  0.20711850  0.53581370  0.05621338    -0.06860
Co59       Co  0.21509063  0.65614296  0.16118707     0.74180
N60         N  0.15464592  0.64995541  0.11603413    -0.26040
Co61       Co  0.20763139  0.65453484  0.09269952     0.74070
C62         C  0.17063337  0.55314616  0.04246104     0.42580
N63         N  0.26674109  0.51742212  0.11040921     0.00990
N64         N  0.19268714  0.59835603  0.07162037     0.01090
N65         N  0.24112114  0.74868609  0.14797930    -0.46880
H66         H  0.14621829  0.61664549  0.20391635     0.06850
N67         N  0.15667875  0.65235446  0.14188012     0.01380
N68         N  0.26051315  0.65829219  0.06976603     0.01120
C69         C  0.28770085  0.66880026  0.03205102     0.42720
N70         N  0.26640249  0.51694271  0.13622700    -0.25490
C71         C  0.28789582  0.67785970  0.20221449    -0.06410
N72         N  0.21405673  0.53697753  0.19631446    -0.46600
N73         N  0.26071043  0.68454238  0.04989778    -0.46820
C74         C  0.32723961  0.65602449  0.21047006     0.42490
N75         N  0.22938210  0.71067676  0.13924726     0.01360
N76         N  0.33829408  0.57513810  0.13439199    -0.25510
N77         N  0.20142083  0.60078430  0.18097393    -0.26010
N78         N  0.33732821  0.57765606  0.10849199     0.01000
H79         H  0.38908721  0.57735977  0.16258491     0.06890
H80         H  0.32331902  0.60477163  0.03276544     0.06930
N81         N  0.22508442  0.70958352  0.11343067    -0.26060
N82         N  0.21967930  0.56635128  0.07248496    -0.25670
N83         N  0.30001631  0.62383218  0.17729000     0.01370
C84         C  0.09105901  0.64261302  0.13334492     0.42770
C85         C  0.25435741  0.47857699  0.14431558    -0.06920
N86         N  0.28645043  0.62564238  0.06645334    -0.25670
H87         H  0.22604780  0.50832730  0.05083666     0.06910
N88         N  0.11902531  0.64830238  0.15310175    -0.46890
H89         H  0.25198188  0.46856319  0.16453899     0.06900
C90         C  0.40353289  0.58286351  0.11839000     0.42600
C91         C  0.17007175  0.59370382  0.19797843    -0.06420
Co92       Co  0.28301546  0.57004647  0.15718319     0.73820
N93         N  0.25514820  0.48099860  0.09987396    -0.46610
C94         C  0.24539259  0.77414691  0.12668328     0.42870
N95         N  0.33199254  0.62333121  0.19377115    -0.46600
Co96       Co  0.27860253  0.57159008  0.08939539     0.73890
C97         C  0.30513344  0.62930385  0.04268065    -0.06920
C98         C  0.11448249  0.64427233  0.10875886    -0.06490
N99         N  0.27366170  0.65587816  0.18115696    -0.26010
N100        N  0.16397034  0.59264836  0.05280295    -0.46780
H101        H  0.23198466  0.75599686  0.08331901     0.06870
C102        C  0.37859779  0.57794225  0.14237520    -0.06900
Cl103      Cl  0.24639516  0.61352477  0.12512245    -0.49900
C104        C  0.24626943  0.45523111  0.12001865     0.42630
H105        H  0.27054984  0.70279367  0.21232628     0.06840
N106        N  0.37571467  0.58212465  0.09806061    -0.46610
C107        C  0.91747635  0.14667614  0.12303306     0.42480
N108        N  0.85127807  0.14835636  0.11338493     0.01370
C109        C  0.68245796  0.12675554  0.19939589    -0.06510
H110        H  0.77289934  0.00733989  0.20225797     0.06860
C111        C  0.73318131  0.98487762  0.09852002    -0.06860
Co112      Co  0.79650777  0.15246802  0.16209107     0.74180
N113        N  0.77953411  0.06416434  0.17908697    -0.26040
Co114      Co  0.72176055  0.07314646  0.15847282     0.74070
C115        C  0.74034766  0.95722037  0.12089839     0.42580
N116        N  0.77185446  0.07480465  0.07066997     0.00990
N117        N  0.73195391  0.02056979  0.13491654     0.01090
N118        N  0.73531467  0.17211146  0.20893487    -0.46880
H119        H  0.90293123  0.14672664  0.16747931     0.06850
N120        N  0.80838071  0.09431620  0.17922718     0.01380
N121        N  0.66444785  0.08415728  0.13893565     0.01120
C122        C  0.59872563  0.09144339  0.12935971     0.42720
N123        N  0.80159567  0.10379395  0.06903926    -0.25490
C124        C  0.77427752  0.24914740  0.15325992    -0.06410
N125        N  0.88968528  0.14827746  0.10290298    -0.46600
N126        N  0.62605222  0.08525808  0.14944293    -0.46820
C127        C  0.76940517  0.27669273  0.13020066     0.42490
N128        N  0.74080263  0.15448460  0.18529930     0.01360
N129        N  0.73811227  0.17049963  0.07517265    -0.25510
N130        N  0.85194711  0.14772863  0.13934787    -0.26010
N131        N  0.70824960  0.14180469  0.07286356     0.01000
H132        H  0.74876497  0.23089106  0.05741341     0.06890
H133        H  0.61386459  0.09415896  0.08497876     0.06930
N134        N  0.71157933  0.12576169  0.18074794    -0.26060
N135        N  0.72841877  0.02368719  0.10918196    -0.25670
N136        N  0.78443058  0.21274576  0.11754148     0.01370
C137        C  0.83164642  0.04998004  0.20789126     0.42770
C138        C  0.82751031  0.09148103  0.04899120    -0.06920
N139        N  0.66360690  0.08876669  0.11326339    -0.25670
H140        H  0.73183695  0.97709096  0.07781161     0.06910
N141        N  0.83943358  0.08716474  0.19599187    -0.46890
H142        H  0.85347478  0.10972796  0.04122139     0.06900
C143        C  0.68889144  0.19378616  0.04798024     0.42600
C144        C  0.89244044  0.14642825  0.14726014    -0.06420
Co145      Co  0.79480004  0.15907240  0.09348914     0.73820
N146        N  0.77630337  0.04312872  0.05408141    -0.46610
C147        C  0.69843220  0.15629992  0.21852124     0.42870
N148        N  0.77612828  0.25153032  0.10898328    -0.46600
Co149      Co  0.71747374  0.08231317  0.09125443     0.73890
C150        C  0.62368039  0.09306619  0.10528513    -0.06920
C151        C  0.79147687  0.03452431  0.19671067    -0.06490
N152        N  0.78337736  0.21031814  0.14345511    -0.26010
N153        N  0.73903235  0.98125564  0.14285621    -0.46780
H154        H  0.65914005  0.10223583  0.20233130     0.06870
C155        C  0.72816400  0.20432130  0.06092604    -0.06900
Cl156      Cl  0.75780600  0.11670888  0.12636126    -0.49900
C157        C  0.81076755  0.04999111  0.03968121     0.42630
H158        H  0.77172647  0.25698376  0.17392143     0.06840
N159        N  0.67889068  0.15368314  0.05557088    -0.46610
C160        C  0.90922543  0.63959995  0.13844951     0.42480
N161        N  0.84704232  0.64518977  0.12229451     0.01370
C162        C  0.65667213  0.64890163  0.18885465    -0.06510
H163        H  0.75133396  0.51625493  0.20638332     0.06860
C164        C  0.72805183  0.48455924  0.10301364    -0.06860
Co165      Co  0.78089749  0.65864279  0.16340232     0.74180
N166        N  0.75745034  0.57307924  0.18277457    -0.26040
Co167      Co  0.70439326  0.58065880  0.15730316     0.74070
C168        C  0.72894614  0.45851132  0.12677582     0.42580
N169        N  0.77757627  0.56879678  0.07555041     0.00990
N170        N  0.71776904  0.52410092  0.13727905     0.01090
N171        N  0.70801960  0.69643945  0.19679029    -0.46880
H172        H  0.88400198  0.64694745  0.18080500     0.06850
N173        N  0.78621501  0.60318449  0.18321892     0.01380
N174        N  0.65267591  0.59029535  0.13185047     0.01120
C175        C  0.58856990  0.59476413  0.11731673     0.42720
N176        N  0.80822327  0.59690377  0.07730034    -0.25490
C177        C  0.76741659  0.75337542  0.14936101    -0.06410
N178        N  0.88726265  0.64002152  0.11575412    -0.46600
N179        N  0.61247446  0.59196153  0.13924289    -0.46820
C180        C  0.77025989  0.77766854  0.12527409     0.42490
N181        N  0.72037623  0.66732786  0.17935091     0.01360
N182        N  0.74755799  0.66518958  0.07274572    -0.25510
N183        N  0.84116056  0.64852103  0.14782224    -0.26010
N184        N  0.71824321  0.63708917  0.06693651     0.01000
H185        H  0.77276399  0.71933164  0.05365678     0.06890
H186        H  0.61181242  0.59365886  0.07425694     0.06930
N187        N  0.69146328  0.63803210  0.17563656    -0.26060
N188        N  0.72101573  0.52437608  0.11143930    -0.25670
N189        N  0.78369633  0.71263106  0.11632039     0.01370
C190        C  0.80998946  0.55941227  0.21158495     0.42770
C191        C  0.84122992  0.58215636  0.06301130    -0.06920
N192        N  0.65727186  0.59165567  0.10602610    -0.25670
H193        H  0.73249218  0.47541386  0.08268835     0.06910
N194        N  0.81731088  0.59624314  0.19971227    -0.46890
H195        H  0.87027575  0.59904549  0.05927892     0.06900
C196        C  0.71813800  0.68295265  0.03573659     0.42600
C197        C  0.87878048  0.64520989  0.15983430    -0.06420
Co198      Co  0.79716251  0.65506533  0.09700885     0.73820
N199        N  0.78777194  0.53525013  0.06129310    -0.46610
C200        C  0.66767127  0.68710329  0.20364843     0.42870
N201        N  0.78043230  0.75069062  0.10552118    -0.46600
Co202      Co  0.71757242  0.58046789  0.08951421     0.73890
C203        C  0.61845464  0.59477722  0.09509090    -0.06920
C204        C  0.76915204  0.54404499  0.20098607    -0.06490
N205        N  0.77613985  0.71349205  0.14180092    -0.26010
N206        N  0.72219718  0.48547186  0.14724955    -0.46780
H207        H  0.62934318  0.62878793  0.19125433     0.06870
C208        C  0.74822580  0.69568520  0.05519458    -0.06900
Cl209      Cl  0.74979207  0.61874848  0.12675639    -0.49900
C210        C  0.82762939  0.54051205  0.05292148     0.42630
H211        H  0.76051464  0.76391449  0.16918920     0.06840
N212        N  0.70118749  0.64531016  0.04347259    -0.46610
C213        C  0.19260284  0.45580972  0.95035629     0.42480
N214        N  0.23757478  0.42472443  0.92465612     0.01370
C215        C  0.21460100  0.37801980  0.79171749    -0.06510
H216        H  0.13536563  0.28395208  0.84731555     0.06860
C217        C  0.27564656  0.23202321  0.88735509    -0.06860
Co218      Co  0.20772155  0.42446802  0.86845462     0.74180
N219        N  0.17406637  0.33830145  0.85670354    -0.26040
Co220      Co  0.23362713  0.32821600  0.83883956     0.74070
C221        C  0.23600042  0.21288585  0.87869141     0.42580
N222        N  0.31301497  0.32018670  0.91823712     0.00990
N223        N  0.24266321  0.27400546  0.86094433     0.01090
N224        N  0.18368586  0.43650653  0.80895937    -0.46880
H225        H  0.14497256  0.46401956  0.91657706     0.06850
N226        N  0.16533023  0.37463566  0.86874856     0.01380
N227        N  0.29440397  0.32132980  0.82185264     0.01120
C228        C  0.34864960  0.32533776  0.79593496     0.42720
N229        N  0.30403324  0.35616203  0.93064260    -0.25490
C230        C  0.25416730  0.51132169  0.85952518    -0.06410
N231        N  0.23184967  0.43888482  0.94888743    -0.46600
N232        N  0.30574158  0.32823996  0.79706512    -0.46820
C233        C  0.29091201  0.53287677  0.87106137     0.42490
N234        N  0.20809952  0.41700347  0.82674048     0.01360
N235        N  0.35623768  0.40183373  0.89221813    -0.25510
N236        N  0.20437074  0.43151298  0.90951888    -0.26010
N237        N  0.36405676  0.36554844  0.88017764     0.01000
H238        H  0.39611854  0.45438136  0.90300848     0.06890
H239        H  0.39475503  0.31659038  0.83021307     0.06930
N240        N  0.22349615  0.38124467  0.81703137    -0.26060
N241        N  0.27651884  0.26981360  0.87562087    -0.25670
N242        N  0.28777797  0.46841304  0.88542257     0.01370
C243        C  0.10701200  0.34022574  0.87080456     0.42770
C244        C  0.30102462  0.34746711  0.95657580    -0.06920
N245        N  0.32745110  0.31619293  0.83726380    -0.25670
H246        H  0.30040881  0.21967782  0.89979441     0.06910
N247        N  0.12585311  0.37717959  0.87704247    -0.46890
H248        H  0.29396162  0.37023915  0.97199183     0.06900
C249        C  0.42384169  0.39724037  0.87959772     0.42600
C250        C  0.17407678  0.45062982  0.92414741    -0.06420
Co251      Co  0.29683100  0.41318204  0.90867365     0.73820
N252        N  0.31606410  0.28714120  0.93403957    -0.46610
C253        C  0.18752588  0.41391061  0.78603598     0.42870
N254        N  0.30985590  0.50415620  0.88701338    -0.46600
Co255      Co  0.32079471  0.31739018  0.87786864     0.73890
C256        C  0.36282107  0.31713720  0.82267688    -0.06920
C257        C  0.13891102  0.31441967  0.85694989    -0.06490
N258        N  0.25453834  0.47201071  0.86962372    -0.26010
N259        N  0.21766715  0.24050677  0.86191455    -0.46780
H260        H  0.21760281  0.34877540  0.78055969     0.06870
C261        C  0.39230632  0.42431568  0.89298756    -0.06900
Cl262      Cl  0.26470734  0.37108135  0.87342845    -0.49900
C263        C  0.30860726  0.30137838  0.95854597     0.42630
H264        H  0.22909659  0.52442027  0.84754408     0.06840
N265        N  0.40359187  0.36163018  0.87253951    -0.46610
C266        C  0.28368445  0.94731927  0.95540366     0.42480
N267        N  0.30450715  0.90087650  0.92625392     0.01370
C268        C  0.27725809  0.94022422  0.79525203    -0.06510
H269        H  0.16067301  0.00396163  0.85742310     0.06860
C270        C  0.12791515  0.84710091  0.88487687    -0.06860
Co271      Co  0.30813563  0.94237896  0.87421793     0.74180
N272        N  0.21937433  0.97048400  0.86422686    -0.26040
Co273      Co  0.21740699  0.91558724  0.84218468     0.74070
C274        C  0.10240054  0.88431777  0.87850803     0.42580
N275        N  0.22414346  0.80485568  0.91217644     0.00990
N276        N  0.16527919  0.89297902  0.86365221     0.01090
N277        N  0.33697378  0.95580576  0.81749547    -0.46880
H278        H  0.29472239  0.00183632  0.92667238     0.06850
N279        N  0.25470821  0.98090776  0.87611402     0.01380
N280        N  0.21763259  0.86194040  0.82020171     0.01120
C281        C  0.20131703  0.82664031  0.78569114     0.42720
N282        N  0.25568466  0.82511388  0.92308706    -0.25490
C283        C  0.39875451  0.90953730  0.86251712    -0.06410
N284        N  0.28935912  0.90516944  0.95062073    -0.46600
N285        N  0.21261326  0.86456160  0.79477272    -0.46820
C286        C  0.42281615  0.87075910  0.86807611     0.42490
N287        N  0.30575799  0.94592342  0.83362169     0.01360
N288        N  0.30476787  0.78564881  0.88131531    -0.25510
N289        N  0.30741968  0.93781009  0.91454865    -0.26010
N290        N  0.27075915  0.77679506  0.86719793     0.01000
H291        H  0.35649810  0.74542338  0.89429163     0.06890
H292        H  0.19041805  0.76608144  0.81045372     0.06930
N293        N  0.27052589  0.93636657  0.82121432    -0.26060
N294        N  0.16597498  0.85505143  0.87471118    -0.25670
N295        N  0.35973129  0.86472651  0.88314999     0.01370
C296        C  0.21417130  0.03516080  0.88150657     0.42770
C297        C  0.26178302  0.81286455  0.94727953    -0.06920
N298        N  0.21213650  0.82356823  0.82960897    -0.25670
H299        H  0.11840180  0.81747124  0.89364435     0.06910
N300        N  0.25303109  0.01931651  0.88641837    -0.46890
H301        H  0.29135936  0.81941988  0.95704699     0.06900
C302        C  0.30546906  0.71749827  0.86664091     0.42600
C303        C  0.29751945  0.96873971  0.93162004    -0.06420
Co304      Co  0.30712873  0.84410586  0.90354446     0.73820
N305        N  0.21146153  0.77342688  0.92791530    -0.46610
C306        C  0.32148084  0.95333285  0.79278672     0.42870
N307        N  0.39652844  0.84476785  0.88124338    -0.46600
Co308      Co  0.21733166  0.81430980  0.87074883     0.73890
C309        C  0.20027227  0.79879697  0.80911466    -0.06920
C310        C  0.19156501  0.00272281  0.86648462    -0.06490
N311        N  0.36030266  0.90260859  0.87246863    -0.26010
N312        N  0.12745644  0.91130967  0.86519938    -0.46780
H313        H  0.25459687  0.93287631  0.78005094     0.06870
C314        C  0.32865695  0.74973256  0.88223928    -0.06900
Cl315      Cl  0.26263646  0.87887990  0.87253166    -0.49900
C316        C  0.23395640  0.77742073  0.95089524     0.42630
H317        H  0.40843130  0.93905336  0.85382459     0.06840
N318        N  0.26990196  0.73718522  0.85856684    -0.46610
C319        C  0.82974925  0.45093515  0.95544966     0.42480
N320        N  0.81730316  0.40012063  0.92783139     0.01370
C321        C  0.77885881  0.42541553  0.79470509    -0.06510
H322        H  0.67005929  0.50395327  0.85327436     0.06860
C323        C  0.63097099  0.35429206  0.89133195    -0.06860
Co324      Co  0.81341669  0.43505191  0.87323169     0.74180
N325        N  0.72643236  0.46750724  0.86208579    -0.26040
Co326      Co  0.72027523  0.40900372  0.84273385     0.74070
C327        C  0.60620530  0.39066376  0.88245331     0.42580
N328        N  0.72198136  0.31490325  0.91892094     0.00990
N329        N  0.66825540  0.39339576  0.86563333     0.01090
N330        N  0.83976473  0.44271702  0.81541363    -0.46880
H331        H  0.82592777  0.50056415  0.92221331     0.06850
N332        N  0.76187376  0.47716882  0.87432195     0.01380
N333        N  0.71521691  0.35030370  0.82376889     0.01120
C334        C  0.70013486  0.30233531  0.79487212     0.42720
N335        N  0.75771855  0.32430016  0.93096218    -0.25490
C336        C  0.90107792  0.39637464  0.86073840    -0.06410
N337        N  0.82467327  0.40823090  0.95305443    -0.46600
N338        N  0.70647164  0.34434150  0.79860208    -0.46820
C339        C  0.92570568  0.35872431  0.86819938     0.42490
N340        N  0.80924939  0.43394412  0.83237334     0.01360
N341        N  0.80483876  0.28194608  0.88917446    -0.25510
N342        N  0.81734306  0.43507229  0.91368729    -0.26010
N343        N  0.76910127  0.27301047  0.87704255     0.01000
H344        H  0.86128166  0.24517633  0.89658550     0.06890
H345        H  0.69793015  0.25052305  0.82646995     0.06930
N346        N  0.77347091  0.42368678  0.82076935    -0.26060
N347        N  0.66828726  0.35806464  0.87939297    -0.25670
N348        N  0.86362547  0.35634042  0.88579302     0.01370
C349        C  0.72382882  0.53402483  0.87749259     0.42770
C350        C  0.75351365  0.31437911  0.95648355    -0.06920
N351        N  0.71379607  0.31477783  0.83725851    -0.25670
H352        H  0.62143792  0.32765384  0.90319281     0.06910
N353        N  0.76183258  0.51666810  0.88353016    -0.46890
H354        H  0.77865916  0.31490803  0.97087543     0.06900
C355        C  0.80571039  0.21524119  0.87339459     0.42600
C356        C  0.82410821  0.46850366  0.92925005    -0.06420
Co357      Co  0.81155633  0.34044273  0.90897503     0.73820
N358        N  0.69354984  0.29802868  0.93482105    -0.46610
C359        C  0.82286121  0.43807658  0.79122557     0.42870
N360        N  0.90020563  0.33563367  0.88397616    -0.46600
Co361      Co  0.71795518  0.31485494  0.87812913     0.73890
C362        C  0.70441604  0.28282811  0.82073813    -0.06920
C363        C  0.70054982  0.50157568  0.86280220    -0.06490
N364        N  0.86361867  0.39206445  0.87244431    -0.26010
N365        N  0.63137989  0.41360382  0.86656518    -0.46780
H366        H  0.75494755  0.41872616  0.78009992     0.06870
C367        C  0.83026000  0.24745828  0.88781959    -0.06900
Cl368      Cl  0.76584232  0.37483178  0.87589806    -0.49900
C369        C  0.71047199  0.29767510  0.95910102     0.42630
H370        H  0.90935439  0.42394580  0.84959324     0.06840
N371        N  0.76828346  0.23385780  0.86757688    -0.46610
C372        C  0.79613866  0.77800920  0.95497636     0.42480
N373        N  0.78145461  0.82758613  0.92732257     0.01370
C374        C  0.81761195  0.84473074  0.79391827    -0.06510
H375        H  0.90018328  0.94348018  0.85208883     0.06860
C376        C  0.76306657  0.01718559  0.87792560    -0.06860
Co377      Co  0.81195988  0.81142118  0.87284054     0.74180
N378        N  0.85651050  0.89260582  0.85966238    -0.26040
Co379      Co  0.80116930  0.90763139  0.83841387     0.74070
C380        C  0.80269725  0.03306758  0.86765899     0.42580
N381        N  0.72262240  0.93657640  0.91562344     0.00990
N382        N  0.79627580  0.96719931  0.85697757     0.01090
N383        N  0.83026322  0.78398100  0.81585808    -0.46880
H384        H  0.83651137  0.74342792  0.92315090     0.06850
N385        N  0.86032286  0.85649620  0.87285493     0.01380
N386        N  0.74173380  0.91819688  0.81995524     0.01120
C387        C  0.68790169  0.91547645  0.79386170     0.42720
N388        N  0.72673206  0.90076479  0.92863801    -0.25490
C389        C  0.75695976  0.73254885  0.86409574    -0.06410
N390        N  0.77589195  0.81472185  0.95140577    -0.46600
N391        N  0.73024146  0.90812436  0.79556651    -0.46820
C392        C  0.71842710  0.71651137  0.87590106     0.42490
N393        N  0.81424304  0.81381497  0.83167802     0.01360
N394        N  0.66931751  0.85594329  0.89187490    -0.25510
N395        N  0.80939911  0.80488987  0.91425215    -0.26010
N396        N  0.66417263  0.89200234  0.87951050     0.01000
H397        H  0.62874299  0.80336632  0.89989598     0.06890
H398        H  0.64193745  0.93436501  0.82664957     0.06930
N399        N  0.80807446  0.84997577  0.81930097    -0.26060
N400        N  0.76208682  0.97649060  0.87059867    -0.25670
N401        N  0.72798693  0.78113146  0.88895840     0.01370
C402        C  0.92042332  0.88662779  0.87747084     0.42770
C403        C  0.74091606  0.91005509  0.95287118    -0.06920
N404        N  0.70879758  0.92926121  0.83458230    -0.25670
H405        H  0.73754681  0.03418084  0.88757001     0.06910
N406        N  0.89832855  0.85139665  0.88319540    -0.46890
H407        H  0.75031478  0.88689552  0.96726536     0.06900
C408        C  0.60377505  0.86161372  0.87699604     0.42600
C409        C  0.81985855  0.77151848  0.92990266    -0.06420
Co410      Co  0.72573622  0.84123651  0.90935896     0.73820
N411        N  0.73531335  0.97009846  0.92943417    -0.46610
C412        C  0.83220783  0.80105921  0.79153197     0.42870
N413        N  0.70261201  0.74785725  0.89169602    -0.46600
Co414      Co  0.71360821  0.93430646  0.87516468     0.73890
C415        C  0.67391841  0.92929821  0.81971765    -0.06920
C416        C  0.89301534  0.91382893  0.86165256    -0.06490
N417        N  0.76046236  0.77206458  0.87340649    -0.26010
N418        N  0.82121623  0.00072714  0.85404807    -0.46780
H419        H  0.82004685  0.87006380  0.77976307     0.06870
C420        C  0.63310353  0.83422739  0.89130516    -0.06900
Cl421      Cl  0.76318944  0.87335851  0.87358810    -0.49900
C422        C  0.74758059  0.95611480  0.95332971     0.42630
H423        H  0.78102894  0.71551930  0.85306027     0.06840
N424        N  0.62537861  0.89679467  0.87042554    -0.46610
C425        C  0.08489951  0.32502443  0.71137233     0.42480
N426        N  0.03360789  0.30896961  0.68437302     0.01370
C427        C  0.08741168  0.31965807  0.55315899    -0.06510
H428        H  0.16446516  0.41586031  0.60812108     0.06860
C429        C  0.01473164  0.48826421  0.63594267    -0.06860
Co430      Co  0.07291326  0.29059155  0.63183691     0.74180
N431        N  0.11785634  0.37084943  0.62005204    -0.26040
Co432      Co  0.06651872  0.38349407  0.59717354     0.74070
C433        C  0.05496057  0.50672134  0.62862226     0.42580
N434        N  0.95993817  0.40698703  0.66561592     0.00990
N435        N  0.05424686  0.44151266  0.61628819     0.01090
N436        N  0.08834160  0.25723137  0.57496674    -0.46880
H437        H  0.13304344  0.29399951  0.68291269     0.06850
N438        N  0.12013352  0.33479979  0.63279504     0.01380
N439        N  0.01527317  0.39359571  0.57386838     0.01120
C440        C  0.98503934  0.42130822  0.54036930     0.42720
N441        N  0.96627820  0.37215189  0.67918332    -0.25490
C442        C  0.02713250  0.20674721  0.62397185    -0.06410
N443        N  0.04229878  0.32782539  0.70730367    -0.46600
N444        N  0.01998124  0.40149513  0.54873135    -0.46820
C445        C  0.98864685  0.18762090  0.63392248     0.42490
N446        N  0.07881554  0.28958950  0.59084881     0.01360
N447        N  0.92336542  0.32631996  0.63843252    -0.25510
N448        N  0.06829210  0.29567337  0.67254631    -0.26010
N449        N  0.92201815  0.36003100  0.62297696     0.01000
H450        H  0.87415506  0.28540833  0.65286504     0.06890
H451        H  0.92785645  0.44243645  0.56586742     0.06930
N452        N  0.07789295  0.32615130  0.57837451    -0.26060
N453        N  0.01695150  0.44848197  0.62720271    -0.25670
N454        N  0.98892490  0.25425371  0.64408389     0.01370
C455        C  0.18264953  0.35929573  0.63457144     0.42770
C456        C  0.95498063  0.37873751  0.70404301    -0.06920
N457        N  0.97843377  0.40591475  0.58345692    -0.25670
H458        H  0.98656905  0.50352557  0.64373803     0.06910
N459        N  0.15830707  0.32662011  0.64151185    -0.46890
H460        H  0.95258744  0.35423220  0.71875689     0.06900
C461        C  0.85762753  0.33876304  0.62351874     0.42600
C462        C  0.10104545  0.30110717  0.68867879    -0.06420
Co463      Co  0.97760161  0.31434340  0.66192664     0.73820
N464        N  0.94149564  0.43719541  0.68010632    -0.46610
C465        C  0.09461193  0.27425470  0.55088696     0.42870
N466        N  0.96638354  0.21889742  0.64638806    -0.46600
Co467      Co  0.96870342  0.40563980  0.62461254     0.73890
C468        C  0.95703278  0.42459161  0.56366445    -0.06920
C469        C  0.15593073  0.38897675  0.62002972    -0.06490
N470        N  0.02492334  0.24720979  0.63164918    -0.26010
N471        N  0.07767361  0.47629021  0.61586931    -0.46780
H472        H  0.08931008  0.34386175  0.53823645     0.06870
C473        C  0.88392162  0.31050190  0.63985360    -0.06900
Cl474      Cl  0.02080383  0.34814856  0.62854085    -0.49900
C475        C  0.93802161  0.42165963  0.70484695     0.42630
H476        H  0.05458725  0.19156892  0.61519561     0.06840
N477        N  0.88379833  0.36829176  0.61393060    -0.46610
C478        C  0.08753965  0.88400412  0.70847802     0.42480
N479        N  0.06100848  0.85322124  0.67489576     0.01370
C480        C  0.02163316  0.90418312  0.54633420    -0.06510
H481        H  0.92827946  0.97975391  0.60822535     0.06860
C482        C  0.87234471  0.83469077  0.63861955    -0.06860
Co483      Co  0.06625648  0.89926105  0.62382614     0.74180
N484        N  0.98101214  0.93848314  0.61563111    -0.26040
Co485      Co  0.96851150  0.88380095  0.59309204     0.74070
C486        C  0.85451231  0.87687316  0.63306501     0.42580
N487        N  0.96175914  0.78138641  0.66249385     0.00990
N488        N  0.91566486  0.87126028  0.61530069     0.01090
N489        N  0.08287870  0.92563247  0.56463138    -0.46880
H490        H  0.10694398  0.94175559  0.68315534     0.06850
N491        N  0.01732643  0.94376894  0.62799070     0.01380
N492        N  0.95681402  0.82890895  0.57068893     0.01120
C493        C  0.94451465  0.78392741  0.54008562     0.42720
N494        N  0.99808808  0.78664304  0.67458444    -0.25490
C495        C  0.15424388  0.85777676  0.61239497    -0.06410
N496        N  0.06854465  0.84903413  0.69998878    -0.46600
N497        N  0.95212675  0.82548357  0.54481880    -0.46820
C498        C  0.17599468  0.81865012  0.62004657     0.42490
N499        N  0.05855552  0.90608804  0.58222190     0.01360
N500        N  0.04310971  0.74847692  0.62941747    -0.25510
N501        N  0.07214456  0.89015229  0.66517770    -0.26010
N502        N  0.00608549  0.74138103  0.61846633     0.01000
H503        H  0.09962729  0.71093813  0.63382984     0.06890
H504        H  0.94039274  0.72854173  0.56894350     0.06930
N505        N  0.02178751  0.89577747  0.57178821    -0.26060
N506        N  0.91033216  0.83413656  0.62660777    -0.25670
N507        N  0.10991957  0.81580490  0.63168561     0.01370
C508        C  0.98451926  0.00378279  0.63331656     0.42770
C509        C  0.99089170  0.78334046  0.70067780    -0.06920
N510        N  0.95288361  0.79213030  0.58257217    -0.25670
H511        H  0.85832974  0.80848854  0.64904375     0.06910
N512        N  0.02076603  0.98215346  0.63845717    -0.46890
H513        H  0.01441167  0.78766589  0.71581528     0.06900
C514        C  0.04303560  0.68495418  0.61081297     0.42600
C515        C  0.09070274  0.91184116  0.68507853    -0.06420
Co516      Co  0.05333863  0.80065037  0.65267343     0.73820
N517        N  0.92977804  0.77471487  0.67862208    -0.46610
C518        C  0.06168761  0.92415062  0.54123870     0.42870
N519        N  0.14662031  0.79465621  0.63246198    -0.46600
Co520      Co  0.95718507  0.78659005  0.62253623     0.73890
C521        C  0.94520936  0.76180559  0.56486439    -0.06920
C522        C  0.95815818  0.97447699  0.61790905    -0.06490
N523        N  0.11390916  0.85320947  0.62029808    -0.26010
N524        N  0.88315582  0.89740172  0.61842913    -0.46780
H525        H  0.99385367  0.90327616  0.53394029     0.06870
C526        C  0.06851904  0.71517076  0.62535487    -0.06900
Cl527      Cl  0.01169227  0.84270908  0.62286284    -0.49900
C528        C  0.94513424  0.77519702  0.70328941     0.42630
H529        H  0.16770647  0.88667135  0.60478376     0.06840
N530        N  0.00425532  0.70298743  0.60774800    -0.46610
C531        C  0.45283724  0.40112461  0.71413053     0.42480
N532        N  0.50242508  0.40506515  0.68476961     0.01370
C533        C  0.46133881  0.39362672  0.55105490    -0.06510
H534        H  0.38142119  0.28382667  0.60639731     0.06860
C535        C  0.53748062  0.22369264  0.63302086    -0.06860
Co536      Co  0.46422235  0.41530651  0.63153566     0.74180
N537        N  0.42536259  0.33297365  0.61725603    -0.26040
Co538      Co  0.47901397  0.32490391  0.59465029     0.74070
C539        C  0.50378336  0.20027187  0.62064033     0.42580
N540        N  0.58073037  0.30817726  0.66665800     0.00990
N541        N  0.49468828  0.26660314  0.61280794     0.01090
N542        N  0.45312404  0.45191085  0.57668341    -0.46880
H543        H  0.40158506  0.41464186  0.68352951     0.06850
N544        N  0.42123159  0.36748972  0.63171653     0.01380
N545        N  0.53268720  0.31904398  0.57293383     0.01120
C546        C  0.56711453  0.29420074  0.53985763     0.42720
N547        N  0.57215343  0.34296745  0.68018696    -0.25490
C548        C  0.50642131  0.49934958  0.62119102    -0.06410
N549        N  0.49526725  0.39661161  0.71003487    -0.46600
N550        N  0.53060097  0.31196128  0.54754366    -0.46820
C551        C  0.54493784  0.51987771  0.62912799     0.42490
N552        N  0.46060936  0.41764037  0.59088850     0.01360
N553        N  0.61527443  0.39047308  0.64034792    -0.25510
N554        N  0.46699384  0.41257412  0.67202862    -0.26010
N555        N  0.61895903  0.35704520  0.62461308     0.01000
H556        H  0.66167959  0.43535277  0.65437782     0.06890
H557        H  0.62285372  0.27425744  0.56672010     0.06930
N558        N  0.46558167  0.38306893  0.57652216    -0.26060
N559        N  0.53049794  0.26346182  0.62595736    -0.25670
N560        N  0.54537340  0.45689004  0.64414939     0.01370
C561        C  0.36154079  0.33746630  0.63509569     0.42770
C562        C  0.57872854  0.33622919  0.70556380    -0.06920
N563        N  0.56912457  0.30793848  0.58351429    -0.25670
H564        H  0.56630132  0.21224735  0.64203459     0.06910
N565        N  0.38390424  0.37121683  0.64268204    -0.46890
H566        H  0.57715631  0.36027262  0.72082295     0.06900
C567        C  0.68087883  0.38408545  0.62384919     0.42600
C568        C  0.43453310  0.41190428  0.68886298    -0.06420
Co569      Co  0.55938121  0.39974130  0.66286368     0.73820
N570        N  0.59545824  0.27735323  0.68201255    -0.46610
C571        C  0.45285131  0.43955222  0.55126737     0.42870
N572        N  0.56743236  0.49251781  0.64412154    -0.46600
Co573      Co  0.57546174  0.30892726  0.62519000     0.73890
C574        C  0.59296727  0.29058772  0.56402517    -0.06920
C575        C  0.38891989  0.31154103  0.61810151    -0.06490
N576        N  0.50923413  0.46098241  0.63155644    -0.26010
N577        N  0.47781644  0.22865332  0.60857793    -0.46780
H578        H  0.46475758  0.37203036  0.53457935     0.06870
C579        C  0.65336744  0.40939389  0.64141320    -0.06900
Cl580      Cl  0.51971568  0.36224134  0.62849182    -0.49900
C581        C  0.59396363  0.29285171  0.70699592     0.42630
H582        H  0.47920354  0.51236684  0.61111268     0.06840
N583        N  0.65720176  0.35213554  0.61468766    -0.46610
C584        C  0.58072686  0.83110970  0.71870788     0.42480
N585        N  0.53641957  0.81987962  0.68711024     0.01370
C586        C  0.59416641  0.83273677  0.55687268    -0.06510
H587        H  0.65108920  0.95449109  0.61393974     0.06860
C588        C  0.48308629  0.99220579  0.63054012    -0.06860
Co589      Co  0.58442292  0.81254696  0.63678868     0.74180
N590        N  0.61388950  0.89976808  0.62404284    -0.26040
Co591      Co  0.56225148  0.89768871  0.59895934     0.74070
C592        C  0.51593441  0.01935965  0.62046931     0.42580
N593        N  0.44715997  0.90361095  0.66362845     0.00990
N594        N  0.53492292  0.95413193  0.61479684     0.01090
N595        N  0.60361146  0.77485777  0.58204330    -0.46880
H596        H  0.63756431  0.82322742  0.69143518     0.06850
N597        N  0.62200256  0.86630359  0.63855968     0.01380
N598        N  0.51206308  0.89079068  0.57447007     0.01120
C599        C  0.48916705  0.91901351  0.53920390     0.42720
N600        N  0.45807741  0.87080637  0.67815234    -0.25490
C601        C  0.55654257  0.72280118  0.62644646    -0.06410
N602        N  0.53880449  0.83032886  0.71251176    -0.46600
N603        N  0.52047076  0.89675203  0.54963908    -0.46820
C604        C  0.52016104  0.69738071  0.63218554     0.42490
N605        N  0.59407157  0.80881913  0.59647537     0.01360
N606        N  0.42791121  0.81569309  0.63721125    -0.25510
N607        N  0.57437642  0.81660083  0.67647539    -0.26010
N608        N  0.42029286  0.84782946  0.62114631     0.01000
H609        H  0.38715451  0.76664603  0.65223034     0.06890
H610        H  0.42796724  0.94121365  0.56071512     0.06930
N611        N  0.58730494  0.84269019  0.58219437    -0.26060
N612        N  0.49663433  0.95322118  0.62509759    -0.25670
N613        N  0.50747753  0.76057521  0.64522573     0.01370
C614        C  0.67702153  0.90531293  0.64346232     0.42770
C615        C  0.44668170  0.87784803  0.70297120    -0.06920
N616        N  0.47363276  0.90248380  0.58162622    -0.25670
H617        H  0.45173195  0.99976537  0.63765046     0.06910
N618        N  0.65916846  0.86825846  0.65020025    -0.46890
H619        H  0.44933978  0.85516547  0.71875322     0.06900
C620        C  0.36120955  0.81308215  0.62125982     0.42600
C621        C  0.60384442  0.82198919  0.69484189    -0.06420
Co622      Co  0.48212931  0.81574526  0.66234899     0.73820
N623        N  0.42730513  0.93351289  0.67766180    -0.46610
C624        C  0.60479268  0.78769307  0.55673727     0.42870
N625        N  0.49088238  0.72204158  0.64447722    -0.46600
Co626      Co  0.45871274  0.90185993  0.62268753     0.73890
C627        C  0.45664127  0.92225687  0.56041724    -0.06920
C628        C  0.64691756  0.92632718  0.62567270    -0.06490
N629        N  0.54605129  0.76108923  0.63529332    -0.26010
N630        N  0.54763843  0.99381030  0.61132744    -0.46780
H631        H  0.58893619  0.85341782  0.54031672     0.06870
C632        C  0.39237084  0.79216088  0.63851655    -0.06900
Cl633      Cl  0.52169609  0.85694798  0.63024752    -0.49900
C634        C  0.42695937  0.91952018  0.70283147     0.42630
H635        H  0.58704755  0.71341347  0.61857988     0.06840
N636        N  0.38098270  0.84779604  0.61192141    -0.46610
C637        C  0.92841998  0.03151579  0.30444140     0.42480
N638        N  0.97973238  0.03896673  0.33210099     0.01370
C639        C  0.99275367  0.08295818  0.46175588    -0.06510
H640        H  0.88176123  0.18776190  0.40818945     0.06860
C641        C  0.01749494  0.23537747  0.36103563    -0.06860
Co642      Co  0.95271521  0.04439896  0.38798191     0.74180
N643        N  0.91764523  0.13068866  0.39969812    -0.26040
Co644      Co  0.97790991  0.14286823  0.41376697     0.74070
C645        C  0.98032111  0.25756349  0.37183625     0.42580
N646        N  0.05962728  0.13787697  0.33120992     0.00990
N647        N  0.98441877  0.19470550  0.38821856     0.01090
N648        N  0.97609576  0.02006022  0.44382901    -0.46880
H649        H  0.87909913  0.03165881  0.33811158     0.06850
N650        N  0.90750487  0.09363148  0.38945813     0.01380
N651        N  0.03722093  0.15544642  0.42792673     0.01120
C652        C  0.08348353  0.18068440  0.45451094     0.42720
N653        N  0.04627061  0.10024577  0.32381856    -0.25490
C654        C  0.99624281  0.95687896  0.39671203    -0.06410
N655        N  0.97079445  0.03556136  0.30673075    -0.46600
N656        N  0.04362703  0.16700593  0.45240908    -0.46820
C657        C  0.03346849  0.93495490  0.38612504     0.42490
N658        N  0.96491973  0.05162436  0.42813923     0.01360
N659        N  0.10090050  0.06385717  0.36350215    -0.25510
N660        N  0.94564313  0.03797252  0.34709682    -0.26010
N661        N  0.10870434  0.10199087  0.37327343     0.01000
H662        H  0.14266849  0.01122965  0.35374121     0.06890
H663        H  0.13206288  0.18810790  0.42081136     0.06930
N664        N  0.97531437  0.08899780  0.43790194    -0.26060
N665        N  0.01738688  0.19704062  0.37223248    -0.25670
N666        N  0.03240365  0.99902655  0.37238114     0.01370
C667        C  0.84969090  0.13022265  0.38884203     0.42770
C668        C  0.05022140  0.09540790  0.29818207    -0.06920
N669        N  0.07045015  0.16101798  0.41277514    -0.25670
H670        H  0.04301943  0.24735081  0.34911067     0.06910
N671        N  0.86691454  0.09187499  0.38273755    -0.46890
H672        H  0.04860439  0.06495220  0.28841029     0.06900
C673        C  0.16959675  0.07172707  0.37321998     0.42600
C674        C  0.91157320  0.03302869  0.33145822    -0.06420
Co675      Co  0.04013653  0.05003440  0.34797286     0.73820
N676        N  0.07765050  0.15774060  0.31108922    -0.46610
C677        C  0.99416402  0.03691166  0.46557336     0.42870
N678        N  0.05410167  0.96306891  0.37102527    -0.46600
Co679      Co  0.06455456  0.15021977  0.37211595     0.73890
C680        C  0.10168866  0.17737316  0.42786185    -0.06920
C681        C  0.88323032  0.15584792  0.40025504    -0.06490
N682        N  0.99791706  0.99601523  0.38673956    -0.26010
N683        N  0.96196583  0.23040694  0.38884735    -0.46780
H684        H  0.00766318  0.10723131  0.47331870     0.06870
C685        C  0.13793351  0.04220293  0.36260249    -0.06900
Cl686      Cl  0.00873039  0.09704767  0.38033535    -0.49900
C687        C  0.07132283  0.13289055  0.28936023     0.42630
H688        H  0.97005564  0.94417192  0.40780351     0.06840
N689        N  0.14886182  0.10791775  0.37904892    -0.46610
C690        C  0.07894618  0.52708097  0.29943998     0.42480
N691        N  0.04630755  0.57178427  0.32472162     0.01370
C692        C  0.99242704  0.56336352  0.45625550    -0.06510
H693        H  0.90604985  0.46712010  0.39776901     0.06860
C694        C  0.84798194  0.60867551  0.35763916    -0.06860
Co695      Co  0.04384657  0.54707551  0.38146672     0.74180
N696        N  0.95941853  0.50823017  0.39095034    -0.26040
Co697      Co  0.94340244  0.56871441  0.40657951     0.74070
C698        C  0.82697515  0.57171682  0.36864793     0.42580
N699        N  0.93892801  0.64241429  0.32619827     0.00990
N700        N  0.89091177  0.57419076  0.38264752     0.01090
N701        N  0.05561882  0.53897178  0.44221832    -0.46880
H702        H  0.09108289  0.48218873  0.33442041     0.06850
N703        N  0.99753102  0.50086780  0.38100675     0.01380
N704        N  0.93047581  0.62941112  0.42177632     0.01120
C705        C  0.92105268  0.68265972  0.44753033     0.42720
N706        N  0.97549255  0.63112318  0.31568352    -0.25490
C707        C  0.12397638  0.59993675  0.39395033    -0.06410
N708        N  0.06005305  0.56537596  0.30057078    -0.46600
N709        N  0.92837747  0.64041558  0.44691781    -0.46820
C710        C  0.14533759  0.63627626  0.38222778     0.42490
N711        N  0.03262720  0.55346866  0.42228454     0.01360
N712        N  0.01659437  0.69098284  0.35345603    -0.25510
N713        N  0.05499723  0.54009520  0.34060045    -0.26010
N714        N  0.97970874  0.69971657  0.36435338     0.01000
H715        H  0.07365819  0.72740733  0.34841720     0.06890
H716        H  0.91695709  0.72932553  0.41310555     0.06930
N717        N  0.99472381  0.56506483  0.43032157    -0.26060
N718        N  0.88687621  0.60783745  0.36768878    -0.25670
N719        N  0.08436012  0.62772402  0.36389798     0.01370
C720        C  0.96714339  0.44041043  0.37856019     0.42770
C721        C  0.96743617  0.61255458  0.29223936    -0.06920
N722        N  0.92681918  0.66229114  0.40603741    -0.25670
H723        H  0.83499179  0.63453269  0.34626698     0.06910
N724        N  0.00333805  0.46106587  0.37343781    -0.46890
H725        H  0.99101694  0.59739697  0.28003263     0.06900
C726        C  0.01561961  0.75637039  0.36931176     0.42600
C727        C  0.07619710  0.51028496  0.32642831    -0.06420
Co728      Co  0.03102490  0.63117998  0.33878905     0.73820
N729        N  0.90625650  0.63187957  0.31149931    -0.46610
C730        C  0.03205680  0.54479103  0.46447335     0.42870
N731        N  0.11877794  0.65180140  0.36363582    -0.46600
Co732      Co  0.93279527  0.65417079  0.36587751     0.73890
C733        C  0.92030077  0.69739189  0.42051189    -0.06920
C734        C  0.93778420  0.47155845  0.39034184    -0.06490
N735        N  0.08740924  0.59645424  0.38102246    -0.26010
N736        N  0.85546783  0.55217798  0.38433190    -0.46780
H737        H  0.96323413  0.56598673  0.46731986     0.06870
C738        C  0.04131986  0.72522625  0.35523561    -0.06900
Cl739      Cl  0.98788839  0.60017595  0.37320389    -0.49900
C740        C  0.92087526  0.61221193  0.28977036     0.42630
H741        H  0.13591184  0.57734023  0.40808454     0.06840
N742        N  0.97766304  0.73872395  0.37411241    -0.46610
C743        C  0.59857001  0.09145709  0.29942315     0.42480
N744        N  0.55221774  0.11173419  0.32781164     0.01370
C745        C  0.51603138  0.07069473  0.45783963    -0.06510
H746        H  0.41967473  0.99917087  0.39555535     0.06860
C747        C  0.36614057  0.14386339  0.37060862    -0.06860
Co748      Co  0.56086393  0.07222725  0.38079914     0.74180
N749        N  0.47497378  0.03788757  0.38988939    -0.26040
Co750      Co  0.46615578  0.09438835  0.41270459     0.74070
C751        C  0.34781702  0.10277329  0.37772141     0.42580
N752        N  0.45393510  0.18683112  0.34021869     0.00990
N753        N  0.41079674  0.10712892  0.39303343     0.01090
N754        N  0.56909254  0.03491830  0.43798137    -0.46880
H755        H  0.62600488  0.04316418  0.32916478     0.06850
N756        N  0.51088974  0.03062246  0.37715956     0.01380
N757        N  0.46223294  0.15163023  0.43404312     0.01120
C758        C  0.48231216  0.20042652  0.46150093     0.42720
N759        N  0.48964412  0.17917311  0.32757584    -0.25490
C760        C  0.64587526  0.11479648  0.39381297    -0.06410
N761        N  0.56545926  0.11694317  0.30370209    -0.46600
N762        N  0.47869832  0.15805607  0.45775309    -0.46820
C763        C  0.66810582  0.15194966  0.38434332     0.42490
N764        N  0.55302759  0.06443735  0.42207501     0.01360
N765        N  0.53825111  0.22360133  0.36828740    -0.25510
N766        N  0.57003834  0.07933523  0.33968876    -0.26010
N767        N  0.50213062  0.23203299  0.38017509     0.01000
H768        H  0.59371057  0.26088915  0.36033343     0.06890
H769        H  0.46649315  0.25267855  0.43188184     0.06930
N770        N  0.51950404  0.08187350  0.43296073    -0.26060
N771        N  0.40510915  0.14345970  0.38103190    -0.25670
N772        N  0.60376841  0.15330098  0.36976858     0.01370
C773        C  0.47626999  0.97251582  0.37193415     0.42770
C774        C  0.48101917  0.17721700  0.30172608    -0.06920
N775        N  0.45611438  0.18752026  0.42149513    -0.25670
H776        H  0.35234235  0.16995175  0.35981664     0.06910
N777        N  0.51304381  0.99229629  0.36663290    -0.46890
H778        H  0.50412538  0.17108809  0.28650406     0.06900
C779        C  0.53758633  0.28940073  0.38372905     0.42600
C780        C  0.60103839  0.06479995  0.32339097    -0.06420
Co781      Co  0.54651026  0.16734751  0.34817758     0.73820
N782        N  0.42074385  0.18963044  0.32447820    -0.46610
C783        C  0.54665242  0.03749622  0.46097668     0.42870
N784        N  0.64041488  0.17398384  0.36905051    -0.46600
Co785      Co  0.45318245  0.18831789  0.38076450     0.73890
C786        C  0.46546228  0.21987160  0.43763732    -0.06920
C787        C  0.45053814  0.00331977  0.38688814    -0.06490
N788        N  0.60693991  0.11804799  0.38373916    -0.26010
N789        N  0.37745237  0.08204179  0.39177931    -0.46780
H790        H  0.48743137  0.07514863  0.46927849     0.06870
C791        C  0.56297125  0.25792166  0.36947590    -0.06900
Cl792      Cl  0.50679727  0.13061497  0.38060969    -0.49900
C793        C  0.43495316  0.18351648  0.29971933     0.42630
H794        H  0.65851890  0.08728084  0.40378557     0.06840
N795        N  0.50028327  0.27121574  0.38939340    -0.46610
C796        C  0.41397082  0.59810863  0.30184251     0.42480
N797        N  0.46487118  0.58334439  0.32795852     0.01370
C798        C  0.44857780  0.60541663  0.46228831    -0.06510
H799        H  0.35395933  0.71231602  0.40908314     0.06860
C800        C  0.51132533  0.76160916  0.36681865    -0.06860
Co801      Co  0.43328196  0.57630132  0.38307568     0.74180
N802        N  0.39704876  0.66170841  0.39729109    -0.26040
Co803      Co  0.45669288  0.67052895  0.41540165     0.74070
C804        C  0.47681862  0.78792197  0.37672826     0.42580
N805        N  0.55153866  0.67301869  0.33774591     0.00990
N806        N  0.47154642  0.72487426  0.39273488     0.01090
N807        N  0.43441480  0.54522039  0.43978217    -0.46880
H808        H  0.36402698  0.58692298  0.33341494     0.06850
N809        N  0.39029142  0.62555348  0.38490890     0.01380
N810        N  0.51523747  0.67766149  0.43347252     0.01120
C811        C  0.56238000  0.69478419  0.46215607     0.42720
N812        N  0.53812266  0.63863308  0.32579086    -0.25490
C813        C  0.47700215  0.48852995  0.39231899    -0.06410
N814        N  0.45647132  0.59606752  0.30372329    -0.46600
N815        N  0.52082830  0.68682561  0.45860059    -0.46820
C816        C  0.51620213  0.46839090  0.38307538     0.42490
N817        N  0.43780010  0.57806491  0.42387531     0.01360
N818        N  0.58147379  0.58896997  0.36536192    -0.25510
N819        N  0.43039328  0.57843465  0.34221976    -0.26010
N820        N  0.59174995  0.62345155  0.37866594     0.01000
H821        H  0.61614361  0.53206829  0.35503346     0.06890
H822        H  0.61470900  0.69454120  0.43023770     0.06930
N823        N  0.44618505  0.61385611  0.43643370    -0.26060
N824        N  0.50674864  0.72444818  0.37859096    -0.25670
N825        N  0.51077704  0.53016857  0.36634811     0.01370
C826        C  0.32870719  0.65535936  0.38472546     0.42770
C827        C  0.54576567  0.64145895  0.30016873    -0.06920
N828        N  0.55070065  0.67928990  0.41984554    -0.25670
H829        H  0.53765305  0.76970477  0.35429777     0.06910
N830        N  0.35086389  0.62084510  0.37739924    -0.46890
H831        H  0.54157566  0.61590813  0.28612802     0.06900
C832        C  0.64694944  0.58353909  0.38070090     0.42600
C833        C  0.39656389  0.58539904  0.32698196    -0.06420
Co834      Co  0.52370831  0.58466313  0.34596652     0.73820
N835        N  0.57175110  0.69863611  0.32139715    -0.46610
C836        C  0.44099179  0.55942675  0.46453085     0.42870
N837        N  0.53501177  0.49585020  0.36673661    -0.46600
Co838      Co  0.55075979  0.67550785  0.37884636     0.73890
C839        C  0.58240414  0.68939034  0.43626347    -0.06920
C840        C  0.35958848  0.68310940  0.39831736    -0.06490
N841        N  0.47675183  0.52684952  0.38102683    -0.26010
N842        N  0.45298130  0.76296729  0.39261460    -0.46780
H843        H  0.45532481  0.62877466  0.47726067     0.06870
C844        C  0.61433188  0.56195234  0.36557558    -0.06900
Cl845      Cl  0.49110898  0.62689846  0.38090521    -0.49900
C846        C  0.56934432  0.68059035  0.29717397     0.42630
H847        H  0.45241989  0.47622120  0.40488358     0.06840
N848        N  0.63106275  0.62201677  0.38753343    -0.46610
C849        C  0.47396246  0.92529409  0.37285577    -0.00130
C850        C  0.51249349  0.90292811  0.37295215    -0.12010
C851        C  0.51413141  0.85894578  0.37516125     0.02100
C852        C  0.47617201  0.83521997  0.37634735    -0.00220
C853        C  0.43737467  0.85736860  0.37658120    -0.11950
C854        C  0.43595284  0.90204719  0.37493549     0.01990
H855        H  0.54215960  0.91999016  0.37214918     0.14970
H856        H  0.40809387  0.83971571  0.37763144     0.14970
C857        C  0.39514921  0.92280502  0.37468239     0.36620
C858        C  0.55581189  0.84015733  0.37765068     0.36530
N859        N  0.36224055  0.93916868  0.37450871    -0.43720
N860        N  0.58949135  0.82578692  0.37956596    -0.43720
C861        C  0.52937502  0.42371705  0.38570999    -0.00130
C862        C  0.54968649  0.40386379  0.36430373    -0.12010
C863        C  0.55643297  0.35998189  0.36391228     0.02100
C864        C  0.54288973  0.33554095  0.38544669    -0.00220
C865        C  0.52640101  0.35596901  0.40780201    -0.11950
C866        C  0.51988162  0.39977630  0.40820123     0.01990
H867        H  0.55789901  0.42221014  0.34709272     0.14970
H868        H  0.51680235  0.33734126  0.42461281     0.14970
C869        C  0.50380920  0.41912686  0.43197815     0.36620
C870        C  0.57353939  0.34096597  0.34024415     0.36530
N871        N  0.49136183  0.43435367  0.45125534    -0.43720
N872        N  0.58725212  0.32606433  0.32117019    -0.43720
C873        C  0.78043836  0.56724824  0.37026421    -0.00130
C874        C  0.75622233  0.58931531  0.35163871    -0.12010
C875        C  0.71295536  0.59543500  0.35514046     0.02100
C876        C  0.69231953  0.57646407  0.37648838    -0.00220
C877        C  0.71546449  0.55154676  0.39411895    -0.11950
C878        C  0.75951945  0.54733654  0.39150058     0.01990
H879        H  0.77141701  0.60424816  0.33501517     0.14970
H880        H  0.69938692  0.53699431  0.41057519     0.14970
C881        C  0.78222467  0.52485400  0.41176737     0.36620
C882        C  0.69132487  0.62468675  0.33799470     0.36530
N883        N  0.80026462  0.50707321  0.42818852    -0.43720
N884        N  0.67464534  0.64941613  0.32481285    -0.43720
C885        C  0.19205013  0.64263597  0.38229972    -0.00130
C886        C  0.20957993  0.68359287  0.38439297    -0.12010
C887        C  0.25398002  0.68939424  0.38557968     0.02100
C888        C  0.28138439  0.65376299  0.38480283    -0.00220
C889        C  0.26331077  0.61322653  0.38222401    -0.11950
C890        C  0.21980969  0.60742882  0.38055290     0.01990
H891        H  0.18863348  0.71098427  0.38520663     0.14970
H892        H  0.28333078  0.58515678  0.38113934     0.14970
C893        C  0.20511860  0.56473729  0.37563124     0.36620
C894        C  0.27051363  0.73190260  0.38644810     0.36530
N895        N  0.19364570  0.53048971  0.37163512    -0.43720
N896        N  0.28378023  0.76604207  0.38695647    -0.43720
C897        C  0.80386619  0.14089892  0.38758794    -0.00130
C898        C  0.78313769  0.13956518  0.36328079    -0.12010
C899        C  0.73945185  0.14777481  0.36144583     0.02100
C900        C  0.71512994  0.15523439  0.38433622    -0.00220
C901        C  0.73620345  0.15784994  0.40857605    -0.11950
C902        C  0.78030676  0.15207413  0.41025521     0.01990
H903        H  0.80118268  0.13226162  0.34564360     0.14970
H904        H  0.71798077  0.16347708  0.42635767     0.14970
C905        C  0.80033627  0.15601902  0.43562345     0.36620
C906        C  0.72047282  0.14788034  0.33583174     0.36530
N907        N  0.81650517  0.15955202  0.45590509    -0.43720
N908        N  0.70613989  0.14897208  0.31499698    -0.43720
C909        C  0.21592441  0.07176551  0.36936032    -0.00130
C910        C  0.24161523  0.04620401  0.38524090    -0.12010
C911        C  0.28523099  0.05411106  0.38748858     0.02100
C912        C  0.30365107  0.08814780  0.37341430    -0.00220
C913        C  0.27826885  0.11099606  0.35583325    -0.11950
C914        C  0.23489793  0.10354775  0.35394358     0.01990
H915        H  0.22714344  0.02204074  0.39731626     0.14970
H916        H  0.29182076  0.13623882  0.34425151     0.14970
C917        C  0.21022305  0.13117957  0.33727994     0.36620
C918        C  0.30928403  0.02852377  0.40566358     0.36530
N919        N  0.19090861  0.15409250  0.32418554    -0.43720
N920        N  0.32835411  0.00798115  0.42031859    -0.43720
C921        C  0.03657012  0.88852283  0.38275092    -0.00130
C922        C  0.02246246  0.86298813  0.40339220    -0.12010
C923        C  0.01717310  0.81937921  0.39976543     0.02100
C924        C  0.02623920  0.80071317  0.37515990    -0.00220
C925        C  0.04320545  0.82552083  0.35508412    -0.11950
C926        C  0.04807571  0.86926768  0.35850318     0.01990
H927        H  0.01428571  0.87738046  0.42217692     0.14970
H928        H  0.05030621  0.81110794  0.33614286     0.14970
C929        C  0.06137298  0.89358887  0.33602765     0.36620
C930        C  0.00298766  0.79445892  0.42168280     0.36530
N931        N  0.07174638  0.91293748  0.31789732    -0.43720
N932        N  0.99201584  0.77471259  0.43946701    -0.43720
C933        C  0.97169910  0.30416320  0.37147672    -0.00130
C934        C  0.95115048  0.32318753  0.39319124    -0.12010
C935        C  0.94713285  0.36750517  0.39545659     0.02100
C936        C  0.96361856  0.39373969  0.37560748    -0.00220
C937        C  0.98216531  0.37475446  0.35334495    -0.11950
C938        C  0.98592648  0.33057394  0.35094649     0.01990
H939        H  0.93990911  0.30354507  0.40912549     0.14970
H940        H  0.99453317  0.39470432  0.33786110     0.14970
C941        C  0.00422499  0.31364475  0.32703882     0.36620
C942        C  0.92912493  0.38505376  0.41927857     0.36530
N943        N  0.01892296  0.30048046  0.30776704    -0.43720
N944        N  0.91480421  0.39897673  0.43845556    -0.43720
C945        C  0.50268006  0.95129443  0.51981854    -0.00130
C946        C  0.47776735  0.95877356  0.49787497    -0.12010
C947        C  0.49256498  0.98417631  0.47738247     0.02100
C948        C  0.53434205  0.00139545  0.47793498    -0.00220
C949        C  0.55945865  0.99334790  0.49979512    -0.11950
C950        C  0.54401418  0.96957708  0.52082115     0.01990
H951        H  0.44638785  0.94508063  0.49686028     0.14970
H952        H  0.59029976  0.00812719  0.50127006     0.14970
C953        C  0.57142559  0.96589663  0.54344130     0.36620
C954        C  0.46170961  0.99541610  0.45783535     0.36530
N955        N  0.59393781  0.96292554  0.56126462    -0.43720
N956        N  0.43477646  0.00537827  0.44380422    -0.43720
C957        C  0.57859600  0.71475893  0.48679882    -0.00130
C958        C  0.55416711  0.70954872  0.50965339    -0.12010
C959        C  0.56297691  0.73187161  0.53281291     0.02100
C960        C  0.59785701  0.75942608  0.53386240    -0.00220
C961        C  0.62307101  0.76420178  0.51139752    -0.11950
C962        C  0.61383131  0.74237188  0.48792853     0.01990
H963        H  0.52643280  0.68957883  0.50906548     0.14970
H964        H  0.64918487  0.78636022  0.51192084     0.14970
C965        C  0.63932304  0.75185141  0.46521389     0.36620
C966        C  0.53283734  0.72949830  0.55409527     0.36530
N967        N  0.66011725  0.76023991  0.44726219    -0.43720
N968        N  0.50792356  0.72809927  0.57074346    -0.43720
C969        C  0.44292337  0.53038328  0.48773624    -0.00130
C970        C  0.42729886  0.48883573  0.48458205    -0.12010
C971        C  0.43032099  0.45860827  0.50467284     0.02100
C972        C  0.44879482  0.46968798  0.52895583    -0.00220
C973        C  0.46326657  0.51139275  0.53249824    -0.11950
C974        C  0.46097246  0.54146191  0.51229258     0.01990
H975        H  0.41276699  0.47957950  0.46614076     0.14970
H976        H  0.47740197  0.52042063  0.55111255     0.14970
C977        C  0.47877883  0.58258908  0.51759952     0.36620
C978        C  0.41290252  0.41702537  0.49997279     0.36530
N979        N  0.49345796  0.61516562  0.52265821    -0.43720
N980        N  0.39883335  0.38377279  0.49603030    -0.43720
C981        C  0.56427836  0.26616581  0.51659077    -0.00130
C982        C  0.55471886  0.22323793  0.52071591    -0.12010
C983        C  0.52939234  0.20050576  0.50277340     0.02100
C984        C  0.51322801  0.22082298  0.48004372    -0.00220
C985        C  0.52721231  0.26226631  0.47472815    -0.11950
C986        C  0.55220444  0.28479092  0.49261685     0.01990
H987        H  0.56298627  0.20882234  0.53933928     0.14970
H988        H  0.51728927  0.27836421  0.45708072     0.14970
C989        C  0.56084263  0.32894820  0.48735129     0.36620
C990        C  0.51834736  0.15750991  0.50934479     0.36530
N991        N  0.56742474  0.36436397  0.48318609    -0.43720
N992        N  0.50991681  0.12305346  0.51496332    -0.43720
C993        C  0.54633484  0.56579604  0.63066411    -0.00130
C994        C  0.53560783  0.58527842  0.65463322    -0.12010
C995        C  0.52364932  0.62802174  0.65543608     0.02100
C996        C  0.52269130  0.65135417  0.63195388    -0.00220
C997        C  0.53429323  0.63197056  0.60815390    -0.11950
C998        C  0.54560726  0.58930302  0.60728922     0.01990
H999        H  0.53462929  0.56660710  0.67245759     0.14970
H1000       H  0.53500519  0.65038879  0.59023471     0.14970
C1001       C  0.55549037  0.56997205  0.58215743     0.36620
C1002       C  0.51372863  0.64747826  0.68049204     0.36530
N1003       N  0.56339077  0.55447818  0.56204148    -0.43720
N1004       N  0.50579234  0.66316964  0.70054573    -0.43720
C1005       C  0.50657828  0.15450853  0.61464259    -0.00130
C1006       C  0.46957195  0.13076480  0.61432478    -0.12010
C1007       C  0.47155797  0.08645002  0.61381610     0.02100
C1008       C  0.51148847  0.06536030  0.61532547    -0.00220
C1009       C  0.54825481  0.08921285  0.61245700    -0.11950
C1010       C  0.54609292  0.13339832  0.61126082     0.01990
H1011       H  0.43908420  0.14681704  0.61512051     0.14970
H1012       H  0.57885789  0.07340299  0.61163960     0.14970
C1013       C  0.58478010  0.15579721  0.60564484     0.36620
C1014       C  0.43210485  0.06431728  0.61038952     0.36530
N1015       N  0.61579850  0.17358815  0.60098986    -0.43720
N1016       N  0.40019907  0.04715761  0.60732685    -0.43720
C1017       C  0.06276072  0.95541759  0.51958596    -0.00130
C1018       C  0.05786134  0.99866218  0.52576401    -0.12010
C1019       C  0.03764584  0.02673603  0.50821798     0.02100
C1020       C  0.02149181  0.01139352  0.48390201    -0.00220
C1021       C  0.03096810  0.96912214  0.47677047    -0.11950
C1022       C  0.05148254  0.94147681  0.49411910     0.01990
H1023       H  0.06589719  0.00969280  0.54535734     0.14970
H1024       H  0.02063899  0.95675318  0.45792396     0.14970
C1025       C  0.05635932  0.89743987  0.48640694     0.36620
C1026       C  0.03183912  0.07008405  0.51681182     0.36530
N1027       N  0.05994787  0.86215512  0.48026143    -0.43720
N1028       N  0.02795252  0.10476519  0.52413137    -0.43720
C1029       C  0.92663841  0.70966560  0.47086440    -0.00130
C1030       C  0.96661282  0.71127903  0.48271102    -0.12010
C1031       C  0.97378296  0.73812048  0.50421618     0.02100
C1032       C  0.94038408  0.76316644  0.51437417    -0.00220
C1033       C  0.90039916  0.76159648  0.50253484    -0.11950
C1034       C  0.89336587  0.73514053  0.48075865     0.01990
H1035       H  0.99236488  0.69200824  0.47489595     0.14970
H1036       H  0.87432432  0.77973727  0.51093412     0.14970
C1037       C  0.85129897  0.73260292  0.46984757     0.36620
C1038       C  0.01555450  0.73949558  0.51568116     0.36530
N1039       N  0.81753784  0.73015305  0.46120573    -0.43720
N1040       N  0.04900376  0.74095741  0.52486514    -0.43720
C1041       C  0.81069505  0.89219823  0.63766138    -0.00130
C1042       C  0.78997758  0.88064054  0.66087201    -0.12010
C1043       C  0.74702469  0.89013622  0.66454383     0.02100
C1044       C  0.72359468  0.90958933  0.64425634    -0.00220
C1045       C  0.74510173  0.92477717  0.62217019    -0.11950
C1046       C  0.78846376  0.91673080  0.61884461     0.01990
H1047       H  0.80716816  0.86357480  0.67597000     0.14970
H1048       H  0.72763334  0.94025059  0.60656957     0.14970
C1049       C  0.80822393  0.93131078  0.59496627     0.36620
C1050       C  0.72712331  0.87900492  0.68907397     0.36530
N1051       N  0.82393195  0.94320818  0.57584612    -0.43720
N1052       N  0.71054634  0.87081405  0.70865554    -0.43720
C1053       C  0.22311676  0.81259844  0.62172333    -0.00130
C1054       C  0.24576145  0.83165377  0.64241900    -0.12010
C1055       C  0.29047788  0.83063422  0.64307029     0.02100
C1056       C  0.31378259  0.81033357  0.62274015    -0.00220
C1057       C  0.29110757  0.79069011  0.60228138    -0.11950
C1058       C  0.24635099  0.79155941  0.60169949     0.01990
H1059       H  0.22848415  0.84834857  0.65780760     0.14970
H1060       H  0.30841602  0.77539093  0.58638032     0.14970
C1061       C  0.22481951  0.77167375  0.57993104     0.36620
C1062       C  0.31196459  0.85213033  0.66427885     0.36530
N1063       N  0.20742796  0.75573250  0.56251406    -0.43720
N1064       N  0.32944078  0.86935941  0.68118229    -0.43720
C1065       C  0.99169223  0.45312189  0.51974708    -0.00130
C1066       C  0.99404604  0.49597147  0.52720940    -0.12010
C1067       C  0.01181839  0.52598806  0.51036603     0.02100
C1068       C  0.02814692  0.51330145  0.48560719    -0.00220
C1069       C  0.02638700  0.47034587  0.47836428    -0.11950
C1070       C  0.00816714  0.44045007  0.49505955     0.01990
H1071       H  0.98320418  0.50585393  0.54655583     0.14970
H1072       H  0.03672912  0.46049179  0.45890341     0.14970
C1073       C  0.00587625  0.39700545  0.48603238     0.36620
C1074       C  0.01106265  0.57010587  0.51829605     0.36530
N1075       N  0.00400804  0.36253774  0.47816161    -0.43720
N1076       N  0.00990278  0.60552964  0.52442780    -0.43720
C1077       C  0.09390655  0.25089928  0.52575568    -0.00130
C1078       C  0.12787534  0.22438529  0.51821854    -0.12010
C1079       C  0.12767903  0.20354250  0.49361976     0.02100
C1080       C  0.09349820  0.21002875  0.47629779    -0.00220
C1081       C  0.06099025  0.23845668  0.48353623    -0.11950
C1082       C  0.06026193  0.25770885  0.50817094     0.01990
H1083       H  0.15412440  0.21960772  0.53160097     0.14970
H1084       H  0.03413180  0.24316385  0.47057067     0.14970
C1085       C  0.02271045  0.28123171  0.51585465     0.36620
C1086       C  0.16161346  0.17447883  0.48706133     0.36530
N1087       N  0.99252282  0.29952260  0.52235137    -0.43720
N1088       N  0.18893934  0.15126187  0.48180790    -0.43720
C1089       C  0.04875070  0.63936353  0.61485430    -0.00130
C1090       C  0.03903752  0.62342922  0.63972292    -0.12010
C1091       C  0.04500671  0.58061475  0.64528307     0.02100
C1092       C  0.05995131  0.55274801  0.62549208    -0.00220
C1093       C  0.07196776  0.56912909  0.60098072    -0.11950
C1094       C  0.06689674  0.61250275  0.59567737     0.01990
H1095       H  0.02679572  0.64463828  0.65487016     0.14970
H1096       H  0.08351342  0.54791216  0.58566363     0.14970
C1097       C  0.08040557  0.62888994  0.57064486     0.36620
C1098       C  0.03547509  0.56596826  0.67146004     0.36530
N1099       N  0.09153230  0.64232387  0.55070532    -0.43720
N1100       N  0.02803692  0.55422663  0.69244748    -0.43720
C1101       C  0.98067238  0.05098906  0.63689966    -0.00130
C1102       C  0.01596439  0.07233309  0.64719187    -0.12010
C1103       C  0.01778721  0.11662959  0.64800013     0.02100
C1104       C  0.98383264  0.14126538  0.63819098    -0.00220
C1105       C  0.94703552  0.12049867  0.62992952    -0.11950
C1106       C  0.94494317  0.07577891  0.62939948     0.01990
H1107       H  0.04314757  0.05441381  0.65408299     0.14970
H1108       H  0.92042404  0.13920180  0.62295581     0.14970
C1109       C  0.90559053  0.05698709  0.62124680     0.36620
C1110       C  0.05520801  0.13587912  0.65905027     0.36530
N1111       N  0.87352154  0.04272926  0.61484745    -0.43720
N1112       N  0.08522457  0.15122625  0.66786916    -0.43720
C1113       C  0.81148758  0.34759919  0.62442848    -0.00130
C1114       C  0.79278506  0.36367881  0.60148304    -0.12010
C1115       C  0.75088925  0.37830461  0.60140732     0.02100
C1116       C  0.72711372  0.37843216  0.62480865    -0.00220
C1117       C  0.74564677  0.36288430  0.64790329    -0.11950
C1118       C  0.78739318  0.34720771  0.64789451     0.01990
H1119       H  0.81108478  0.36477146  0.58344115     0.14970
H1120       H  0.72683325  0.36125801  0.66571991     0.14970
C1121       C  0.80433024  0.33127211  0.67223511     0.36620
C1122       C  0.73260258  0.39249262  0.57696012     0.36530
N1123       N  0.81732160  0.31810030  0.69182596    -0.43720
N1124       N  0.71783064  0.40377118  0.55739202    -0.43720
C1125       C  0.22854901  0.35459740  0.63339382    -0.00130
C1126       C  0.24571018  0.31326829  0.63550919    -0.12010
C1127       C  0.28917802  0.30650607  0.63557592     0.02100
C1128       C  0.31586853  0.34143459  0.63319019    -0.00220
C1129       C  0.29883289  0.38249402  0.63011653    -0.11950
C1130       C  0.25550887  0.38945587  0.63047046     0.01990
H1131       H  0.22524388  0.28600749  0.63753650     0.14970
H1132       H  0.31947444  0.40961107  0.62789448     0.14970
C1133       C  0.24026105  0.43271111  0.62898458     0.36620
C1134       C  0.30547833  0.26404371  0.63938309     0.36530
N1135       N  0.22852123  0.46753107  0.62774720    -0.43720
N1136       N  0.31849707  0.23002567  0.64252281    -0.43720
C1137       C  0.65931305  0.89468554  0.77472683    -0.00130
C1138       C  0.64341728  0.85418681  0.78038750    -0.12010
C1139       C  0.61469157  0.83411373  0.76337214     0.02100
C1140       C  0.60066852  0.85496614  0.74053672    -0.00220
C1141       C  0.61555386  0.89607979  0.73538710    -0.11950
C1142       C  0.64454822  0.91598523  0.75226585     0.01990
H1143       H  0.65399482  0.83796079  0.79795514     0.14970
H1144       H  0.60604317  0.91184682  0.71742764     0.14970
C1145       C  0.65956954  0.95781044  0.74584366     0.36620
C1146       C  0.60150788  0.79138041  0.76904808     0.36530
N1147       N  0.67172060  0.99131164  0.74070126    -0.43720
N1148       N  0.59097323  0.75708041  0.77354333    -0.43720
C1149       C  0.85933390  0.78609085  0.76950800    -0.00130
C1150       C  0.90165352  0.77411593  0.77398649    -0.12010
C1151       C  0.93035394  0.76912302  0.75290650     0.02100
C1152       C  0.91671409  0.77645016  0.72681066    -0.00220
C1153       C  0.87361943  0.78588428  0.72256683    -0.11950
C1154       C  0.84526011  0.79070662  0.74347902     0.01990
H1155       H  0.91277621  0.77047377  0.79400050     0.14970
H1156       H  0.86192749  0.79076836  0.70278604     0.14970
C1157       C  0.80156345  0.80062122  0.73781770     0.36620
C1158       C  0.97312901  0.75602706  0.75872943     0.36530
N1159       N  0.76636000  0.80815257  0.73360642    -0.43720
N1160       N  0.00729695  0.74523872  0.76363165    -0.43720
C1161       C  0.67088677  0.28739582  0.77431123    -0.00130
C1162       C  0.68677942  0.26944414  0.75094031    -0.12010
C1163       C  0.66046671  0.26474735  0.72881670     0.02100
C1164       C  0.61772206  0.27804322  0.73026902    -0.00220
C1165       C  0.60105355  0.29071730  0.75470351    -0.11950
C1166       C  0.62733995  0.29670890  0.77636773     0.01990
H1167       H  0.72027323  0.26208507  0.74936454     0.14970
H1168       H  0.56823665  0.30100042  0.75602463     0.14970
C1169       C  0.60993648  0.31781282  0.79928092     0.36620
C1170       C  0.67895462  0.25021764  0.70440207     0.36530
N1171       N  0.59630359  0.33573747  0.81734316    -0.43720
N1172       N  0.69375107  0.23842219  0.68483462    -0.43720
C1173       C  0.84790254  0.43744646  0.76670842    -0.00130
C1174       C  0.87772288  0.46956332  0.76225232    -0.12010
C1175       C  0.90527475  0.46742491  0.74056361     0.02100
C1176       C  0.90335427  0.43250269  0.72326003    -0.00220
C1177       C  0.87184488  0.40188214  0.72693863    -0.11950
C1178       C  0.84463741  0.40365988  0.74852460     0.01990
H1179       H  0.88023410  0.49571930  0.77611368     0.14970
H1180       H  0.87047626  0.37470593  0.71380474     0.14970
C1181       C  0.81706988  0.36797586  0.75292221     0.36620
C1182       C  0.93644477  0.50013278  0.73717764     0.36530
N1183       N  0.79536001  0.33914680  0.75652344    -0.43720
N1184       N  0.96123242  0.52659469  0.73446034    -0.43720
C1185       C  0.71490062  0.58045108  0.87869942    -0.00130
C1186       C  0.70325874  0.60168923  0.85560926    -0.12010
C1187       C  0.70137898  0.64623098  0.85484473     0.02100
C1188       C  0.70946795  0.67042656  0.87773243    -0.00220
C1189       C  0.71817289  0.64911363  0.90128979    -0.11950
C1190       C  0.72157546  0.60454356  0.90183904     0.01990
H1191       H  0.69824522  0.58361310  0.83768275     0.14970
H1192       H  0.72510027  0.66739211  0.91887317     0.14970
C1193       C  0.73286200  0.58424594  0.92622579     0.36620
C1194       C  0.69310158  0.66659567  0.83001324     0.36530
N1195       N  0.74189924  0.56795167  0.94576794    -0.43720
N1196       N  0.68663573  0.68296440  0.81011092    -0.43720
C1197       C  0.81317013  0.16871394  0.86927177    -0.00130
C1198       C  0.78853779  0.14833920  0.84997613    -0.12010
C1199       C  0.78739670  0.10404022  0.84782251     0.02100
C1200       C  0.81186247  0.07878305  0.86482873    -0.00220
C1201       C  0.83859830  0.09870301  0.88302613    -0.11950
C1202       C  0.83955008  0.14327348  0.88542308     0.01990
H1203       H  0.76836417  0.16706495  0.83721721     0.14970
H1204       H  0.85678347  0.07933265  0.89653859     0.14970
C1205       C  0.86543310  0.16114722  0.90595243     0.36620
C1206       C  0.75874660  0.08508098  0.82908736     0.36530
N1207       N  0.88643138  0.17474026  0.92257282    -0.43720
N1208       N  0.73565169  0.06979086  0.81421210    -0.43720
C1209       C  0.17207546  0.82947635  0.76345563    -0.00130
C1210       C  0.12915493  0.83475815  0.76972464    -0.12010
C1211       C  0.10219479  0.85803297  0.75335690     0.02100
C1212       C  0.11770289  0.87603120  0.72984211    -0.00220
C1213       C  0.16037505  0.86974581  0.72318168    -0.11950
C1214       C  0.18743389  0.84674723  0.73972464     0.01990
H1215       H  0.11737826  0.82359391  0.78847472     0.14970
H1216       H  0.17213831  0.88105598  0.70447291     0.14970
C1217       C  0.23160250  0.84283989  0.73268831     0.36620
C1218       C  0.05817459  0.86230404  0.76078022     0.36530
N1219       N  0.26704102  0.83965896  0.72720483    -0.43720
N1220       N  0.02292259  0.86560752  0.76671345    -0.43720
C1221       C  0.34888706  0.95147782  0.76901885    -0.00130
C1222       C  0.39143233  0.93990229  0.77248732    -0.12010
C1223       C  0.41827551  0.93297869  0.75106432     0.02100
C1224       C  0.40263783  0.93725322  0.72524731    -0.00220
C1225       C  0.36096802  0.95176141  0.72156967    -0.11950
C1226       C  0.33396724  0.95879785  0.74321105     0.01990
H1227       H  0.40332672  0.93419594  0.79206238     0.14970
H1228       H  0.34878046  0.95536752  0.70179620     0.14970
C1229       C  0.29130971  0.97323637  0.73827008     0.36620
C1230       C  0.46161794  0.92044280  0.75614316     0.36530
N1231       N  0.25714425  0.98487672  0.73415347    -0.43720
N1232       N  0.49628358  0.91027825  0.76015273    -0.43720
C1233       C  0.46919920  0.86421075  0.86689930    -0.00130
C1234       C  0.48726575  0.83379852  0.88367889    -0.12010
C1235       C  0.53111173  0.83043472  0.88678082     0.02100
C1236       C  0.55790839  0.85730441  0.87223739    -0.00220
C1237       C  0.53990349  0.88483207  0.85376069    -0.11950
C1238       C  0.49622150  0.88900442  0.85117916     0.01990
H1239       H  0.46705932  0.81403898  0.89565962     0.14970
H1240       H  0.56012558  0.90483231  0.84191975     0.14970
C1241       C  0.48118506  0.92041290  0.83292614     0.36620
C1242       C  0.54657093  0.80110187  0.90625428     0.36530
N1243       N  0.47085377  0.94670433  0.81848614    -0.43720
N1244       N  0.55795316  0.77735563  0.92205294    -0.43720
C1245       C  0.96687757  0.88758841  0.87772934    -0.00130
C1246       C  0.98868143  0.85271309  0.86700632    -0.12010
C1247       C  0.03277507  0.85167471  0.86641316     0.02100
C1248       C  0.05587053  0.88561500  0.87743768    -0.00220
C1249       C  0.03411017  0.92106886  0.88762712    -0.11950
C1250       C  0.98971189  0.92231552  0.88780277     0.01990
H1251       H  0.97112538  0.82651830  0.85852184     0.14970
H1252       H  0.05178128  0.94735996  0.89586383     0.14970
C1253       C  0.96829815  0.95860331  0.89926454     0.36620
C1254       C  0.05329350  0.81643875  0.85311268     0.36530
N1255       N  0.95109940  0.98761422  0.90853612    -0.43720
N1256       N  0.06961079  0.78833766  0.84227440    -0.43720
C1257       C  0.15699802  0.40903166  0.76375335    -0.00130
C1258       C  0.17531381  0.39250598  0.74085448    -0.12010
C1259       C  0.15388736  0.36395123  0.72460445     0.02100
C1260       C  0.11004140  0.35530543  0.72865958    -0.00220
C1261       C  0.08978292  0.37781152  0.74941100    -0.11950
C1262       C  0.11299174  0.40384557  0.76709680     0.01990
H1263       H  0.20911939  0.39675040  0.73790661     0.14970
H1264       H  0.05609787  0.37376459  0.75253449     0.14970
C1265       C  0.09120243  0.42558410  0.78812998     0.36620
C1266       C  0.18090881  0.34146822  0.70638545     0.36530
N1267       N  0.07384993  0.44443634  0.80453230    -0.43720
N1268       N  0.20504686  0.32384359  0.69303417    -0.43720
C1269       C  0.37567157  0.34366144  0.77476862    -0.00130
C1270       C  0.36133508  0.37981275  0.76142748    -0.12010
C1271       C  0.38694117  0.40026426  0.74288766     0.02100
C1272       C  0.42781308  0.38409362  0.73668710    -0.00220
C1273       C  0.44243893  0.34821337  0.75029599    -0.11950
C1274       C  0.41691110  0.32807037  0.76915280     0.01990
H1275       H  0.33033585  0.39294183  0.76601874     0.14970
H1276       H  0.47334619  0.33498187  0.74560195     0.14970
C1277       C  0.43318868  0.29034787  0.78164018     0.36620
C1278       C  0.37077851  0.43876665  0.73122652     0.36530
N1279       N  0.44628624  0.26005325  0.79158192    -0.43720
N1280       N  0.35767579  0.46964264  0.72198211    -0.43720
C1281       C  0.47062360  0.39843786  0.87992263    -0.00130
C1282       C  0.49169419  0.35947195  0.87600108    -0.12010
C1283       C  0.53541786  0.35631797  0.87668911     0.02100
C1284       C  0.55971221  0.39293098  0.88152720    -0.00220
C1285       C  0.53917729  0.43238777  0.88452242    -0.11950
C1286       C  0.49479011  0.43545824  0.88383590     0.01990
H1287       H  0.47400507  0.33062522  0.87245867     0.14970
H1288       H  0.55784289  0.46075332  0.88755862     0.14970
C1289       C  0.47535360  0.47685055  0.88632820     0.36620
C1290       C  0.55385987  0.31504182  0.87120923     0.36530
N1291       N  0.46006904  0.51023122  0.88825041    -0.43720
N1292       N  0.56814499  0.28183014  0.86671558    -0.43720
C1293       C  0.06093011  0.33903707  0.86665583    -0.00130
C1294       C  0.04298863  0.37279516  0.85288219    -0.12010
C1295       C  0.99932710  0.37859430  0.85141612     0.02100
C1296       C  0.97204473  0.35054948  0.86493119    -0.00220
C1297       C  0.99024961  0.31479426  0.87733811    -0.11950
C1298       C  0.03438666  0.30872925  0.87809915     0.01990
H1299       H  0.06364492  0.39569771  0.84380349     0.14970
H1300       H  0.97014528  0.29219460  0.88724881     0.14970
C1301       C  0.05173607  0.27256073  0.89172060     0.36620
C1302       C  0.98493470  0.41420156  0.83607922     0.36530
N1303       N  0.06568641  0.24345520  0.90253422    -0.43720
N1304       N  0.97492807  0.44308489  0.82351515    -0.43720
C1305       C  0.30097103  0.57946790  0.86920464    -0.00130
C1306       C  0.28593690  0.60193716  0.84733006    -0.12010
C1307       C  0.29015972  0.64616475  0.84542637     0.02100
C1308       C  0.30910312  0.66987888  0.86598149    -0.00220
C1309       C  0.32652018  0.64736838  0.88721539    -0.11950
C1310       C  0.32302208  0.60267865  0.88886600     0.01990
H1311       H  0.27033101  0.58490834  0.83154726     0.14970
H1312       H  0.34138897  0.66477987  0.90311522     0.14970
C1313       C  0.34133138  0.58202845  0.91139570     0.36620
C1314       C  0.27457553  0.66644655  0.82193325     0.36530
N1315       N  0.35666716  0.56594165  0.92944257    -0.43720
N1316       N  0.26219999  0.68265032  0.80307181    -0.43720
C1317       C  0.22139126  0.16894229  0.88299496    -0.00130
C1318       C  0.19598945  0.14975427  0.86365247    -0.12010
C1319       C  0.18870024  0.10592637  0.86380052     0.02100
C1320       C  0.20608326  0.08104240  0.88412860    -0.00220
C1321       C  0.22628931  0.10119030  0.90518317    -0.11950
C1322       C  0.23483856  0.14443138  0.90464073     0.01990
H1323       H  0.18462741  0.16831964  0.84720071     0.14970
H1324       H  0.23904968  0.08225195  0.92109583     0.14970
C1325       C  0.26006350  0.16115326  0.92582632     0.36620
C1326       C  0.16708277  0.08738108  0.84160775     0.36530
N1327       N  0.28128112  0.17288853  0.94284894    -0.43720
N1328       N  0.14974179  0.07293365  0.82367285    -0.43720
C1329       C  0.84227208  0.51657750  0.02965388    -0.00130
C1330       C  0.85033076  0.53864688  0.00649854    -0.12010
C1331       C  0.84887455  0.51797330  0.98204301     0.02100
C1332       C  0.83864180  0.47402386  0.98055913    -0.00220
C1333       C  0.83500675  0.45142346  0.00415458    -0.11950
C1334       C  0.83684307  0.47224592  0.02849038     0.01990
H1335       H  0.85464250  0.57277499  0.00731735     0.14970
H1336       H  0.82875086  0.41763124  0.00368638     0.14970
C1337       C  0.83135336  0.44777734  0.05213197     0.36620
C1338       C  0.85737361  0.54371283  0.95934245     0.36530
N1339       N  0.82739193  0.42827820  0.07114988    -0.43720
N1340       N  0.86449653  0.56542342  0.94163473    -0.43720
C1341       C  0.77457742  0.74846667  0.97379905    -0.00130
C1342       C  0.74695805  0.76837375  0.99206076    -0.12010
C1343       C  0.72022645  0.74562875  0.00832576     0.02100
C1344       C  0.72338646  0.70115470  0.00930041    -0.00220
C1345       C  0.74985703  0.68029733  0.99082288    -0.11950
C1346       C  0.77451122  0.70353578  0.97262733     0.01990
H1347       H  0.74576025  0.80270248  0.99382320     0.14970
H1348       H  0.75367032  0.64611760  0.99186425     0.14970
C1349       C  0.79992622  0.68044292  0.95378311     0.36620
C1350       C  0.69389026  0.76925784  0.02669708     0.36530
N1351       N  0.81991465  0.66141088  0.93863847    -0.43720
N1352       N  0.67323316  0.78834137  0.04147419    -0.43720
C1353       C  0.65194927  0.69146572  0.23083746    -0.00130
C1354       C  0.65219417  0.65446058  0.24586396    -0.12010
C1355       C  0.62697520  0.65085178  0.26804122     0.02100
C1356       C  0.60182206  0.68583122  0.27648283    -0.00220
C1357       C  0.60548227  0.72472938  0.26327328    -0.11950
C1358       C  0.63026259  0.72765853  0.24030588     0.01990
H1359       H  0.66966259  0.62676923  0.23894110     0.14970
H1360       H  0.58703123  0.75192223  0.26989910     0.14970
C1361       C  0.63156924  0.76715504  0.22619102     0.36620
C1362       C  0.62645630  0.60982959  0.28065872     0.36530
N1363       N  0.63298016  0.79893690  0.21496408    -0.43720
N1364       N  0.62609943  0.57675637  0.29043549    -0.43720
C1365       C  0.83205125  0.55235795  0.23663543    -0.00130
C1366       C  0.87525310  0.54184097  0.23471217    -0.12010
C1367       C  0.90511247  0.55872248  0.25234466     0.02100
C1368       C  0.89177086  0.58749249  0.27225429    -0.00220
C1369       C  0.84782022  0.59330234  0.27601781    -0.11950
C1370       C  0.81820347  0.57575798  0.25871286     0.01990
H1371       H  0.88631180  0.52392522  0.21772423     0.14970
H1372       H  0.83623756  0.61364021  0.29177274     0.14970
C1373       C  0.77413931  0.58707835  0.26205698     0.36620
C1374       C  0.94880224  0.54649890  0.24874505     0.36530
N1375       N  0.73891690  0.59631646  0.26489198    -0.43720
N1376       N  0.98355192  0.53571712  0.24556798    -0.43720
C1377       C  0.81381969  0.02585649  0.01468035    -0.00130
C1378       C  0.80318709  0.04653589  0.99130224    -0.12010
C1379       C  0.78240639  0.02479738  0.97075864     0.02100
C1380       C  0.77317989  0.98082775  0.97305691    -0.00220
C1381       C  0.78873458  0.95951924  0.99529922    -0.11950
C1382       C  0.80860093  0.98138056  0.01585098     0.01990
H1383       H  0.80684417  0.08066592  0.99022845     0.14970
H1384       H  0.78344775  0.92587977  0.99763199     0.14970
C1385       C  0.81868019  0.95815400  0.03949877     0.36620
C1386       C  0.76839605  0.04975979  0.94876221     0.36530
N1387       N  0.82624584  0.93962196  0.05850680    -0.43720
N1388       N  0.75742800  0.07120210  0.93167547    -0.43720
C1389       C  0.67990409  0.21313210  0.02218691    -0.00130
C1390       C  0.66302143  0.25452809  0.02204810    -0.12010
C1391       C  0.67041520  0.28185504  0.00083724     0.02100
C1392       C  0.69609576  0.26818422  0.97973090    -0.00220
C1393       C  0.70994183  0.22578831  0.97880090    -0.11950
C1394       C  0.70171207  0.19819260  0.99969049     0.01990
H1395       H  0.64679540  0.26658476  0.03938369     0.14970
H1396       H  0.72891677  0.21479847  0.96228609     0.14970
C1397       C  0.71947361  0.15589603  0.99884468     0.36620
C1398       C  0.65305577  0.32433684  0.00165951     0.36530
N1399       N  0.73339399  0.12185050  0.99843629    -0.43720
N1400       N  0.63884532  0.35829330  0.00218365    -0.43720
C1401       C  0.76341228  0.82350042  0.12253749    -0.00130
C1402       C  0.72205681  0.83880404  0.11908418    -0.12010
C1403       C  0.71395639  0.88250895  0.11806199     0.02100
C1404       C  0.74767350  0.91124226  0.12058478    -0.00220
C1405       C  0.78902305  0.89593586  0.12394824    -0.11950
C1406       C  0.79713819  0.85225353  0.12487947     0.01990
H1407       H  0.69606895  0.81661007  0.11760373     0.14970
H1408       H  0.81489109  0.91814992  0.12604632     0.14970
C1409       C  0.84007532  0.83763805  0.12875217     0.36620
C1410       C  0.67079636  0.89721494  0.11537233     0.36530
N1411       N  0.87450279  0.82595867  0.13187146    -0.43720
N1412       N  0.63619119  0.90901757  0.11333144    -0.43720
C1413       C  0.75853321  0.32313087  0.12913248    -0.00130
C1414       C  0.74899790  0.34544075  0.15250253    -0.12010
C1415       C  0.73890341  0.38909067  0.15240267     0.02100
C1416       C  0.73801319  0.41176812  0.12845156    -0.00220
C1417       C  0.74676064  0.38920294  0.10513492    -0.11950
C1418       C  0.75725314  0.34590810  0.10519310     0.01990
H1419       H  0.74938762  0.32886778  0.17107873     0.14970
H1420       H  0.74589647  0.40535220  0.08645183     0.14970
C1421       C  0.76730104  0.32658772  0.08011125     0.36620
C1422       C  0.72940786  0.40937501  0.17725425     0.36530
N1423       N  0.77546896  0.31200730  0.05977766    -0.43720
N1424       N  0.72174253  0.42543207  0.19724079    -0.43720
C1425       C  0.63343851  0.11010273  0.28335196    -0.00130
C1426       C  0.62968509  0.15357344  0.27642028    -0.12010
C1427       C  0.65640256  0.17217024  0.25806478     0.02100
C1428       C  0.68839493  0.14780416  0.24625600    -0.00220
C1429       C  0.69607868  0.10617958  0.25561132    -0.11950
C1430       C  0.66853269  0.08707112  0.27380792     0.01990
H1431       H  0.60430234  0.17321641  0.28428048     0.14970
H1432       H  0.72051128  0.08690559  0.24630716     0.14970
C1433       C  0.67498674  0.04334428  0.28099128     0.36620
C1434       C  0.64686764  0.21467056  0.24917934     0.36530
N1435       N  0.67963292  0.00830192  0.28709139    -0.43720
N1436       N  0.63894859  0.24857516  0.24197641    -0.43720
C1437       C  0.85601581  0.03708512  0.23169500    -0.00130
C1438       C  0.89932932  0.04610210  0.23184090    -0.12010
C1439       C  0.92376284  0.04244052  0.25465053     0.02100
C1440       C  0.90466434  0.03107069  0.27885203    -0.00220
C1441       C  0.86150633  0.01997248  0.27843581    -0.11950
C1442       C  0.83744804  0.02208650  0.25510120     0.01990
H1443       H  0.91425562  0.05688844  0.21387232     0.14970
H1444       H  0.84631024  0.00975871  0.29639534     0.14970
C1445       C  0.79380208  0.00945230  0.25592756     0.36620
C1446       C  0.96822083  0.05108784  0.25186889     0.36530
N1447       N  0.75897728  0.99847440  0.25642539    -0.43720
N1448       N  0.00365240  0.05761201  0.24808380    -0.43720
C1449       C  0.16683031  0.54238097  0.01416079    -0.00130
C1450       C  0.20395623  0.54644290  0.99925148    -0.12010
C1451       C  0.21232995  0.51939042  0.97802960     0.02100
C1452       C  0.18176895  0.48939003  0.96995337    -0.00220
C1453       C  0.14195952  0.48984822  0.98233762    -0.11950
C1454       C  0.13457624  0.51570147  0.00464938     0.01990
H1455       H  0.22896871  0.56696546  0.00637313     0.14970
H1456       H  0.11786335  0.46780663  0.97587985     0.14970
C1457       C  0.09473125  0.51274534  0.01830912     0.36620
C1458       C  0.25410632  0.52079821  0.96653256     0.36530
N1459       N  0.06251840  0.51066977  0.02904961    -0.43720
N1460       N  0.28789581  0.52113034  0.95776664    -0.43720
C1461       C  0.24780358  0.74408963  0.97013505    -0.00130
C1462       C  0.27551794  0.75803083  0.99017077    -0.12010
C1463       C  0.29848285  0.73012524  0.00551251     0.02100
C1464       C  0.28752470  0.68738660  0.00578640    -0.00220
C1465       C  0.25906706  0.67211020  0.98657626    -0.11950
C1466       C  0.24072184  0.69993199  0.96790937     0.01990
H1467       H  0.28040127  0.79132408  0.99399973     0.14970
H1468       H  0.24942152  0.63918120  0.98707311     0.14970
C1469       C  0.21395858  0.68269655  0.94763380     0.36620
C1470       C  0.33015972  0.74677332  0.02327878     0.36530
N1471       N  0.19265928  0.66864549  0.93131772    -0.43720
N1472       N  0.35575041  0.75976287  0.03739084    -0.43720
C1473       C  0.54123641  0.59066539  0.11697936    -0.00130
C1474       C  0.51721949  0.60962575  0.09685165    -0.12010
C1475       C  0.47252205  0.60751240  0.09667827     0.02100
C1476       C  0.45085236  0.58547771  0.11670826    -0.00220
C1477       C  0.47498936  0.56611607  0.13652188    -0.11950
C1478       C  0.51932472  0.56837407  0.13684643     0.01990
H1479       H  0.53330784  0.62713455  0.08157897     0.14970
H1480       H  0.45916888  0.54854910  0.15187781     0.14970
C1481       C  0.54133661  0.54600307  0.15747291     0.36620
C1482       C  0.44963099  0.63019892  0.07659715     0.36530
N1483       N  0.55882054  0.52791535  0.17399291    -0.43720
N1484       N  0.43120001  0.64866376  0.06063893    -0.43720
C1485       C  0.04492917  0.63791221  0.13650096    -0.00130
C1486       C  0.02393994  0.66257501  0.15556919    -0.12010
C1487       C  0.97967490  0.66299727  0.15715106     0.02100
C1488       C  0.95583696  0.63773611  0.13963091    -0.00220
C1489       C  0.97699456  0.61172320  0.12134191    -0.11950
C1490       C  0.02113485  0.61133291  0.11975255     0.01990
H1491       H  0.04205871  0.68315850  0.16841862     0.14970
H1492       H  0.95889600  0.59176298  0.10809403     0.14970
C1493       C  0.04106342  0.58253104  0.10123153     0.36620
C1494       C  0.95980518  0.69217304  0.17543392     0.36530
N1495       N  0.05693205  0.55928449  0.08645237    -0.43720
N1496       N  0.94408190  0.71583413  0.19002035    -0.43720
C1497       C  0.16180267  0.53698886  0.23410540    -0.00130
C1498       C  0.13458268  0.50188535  0.23532077    -0.12010
C1499       C  0.10986085  0.49447669  0.25796260     0.02100
C1500       C  0.11371492  0.52130006  0.28012691    -0.00220
C1501       C  0.14425606  0.55336371  0.27974643    -0.11950
C1502       C  0.16685777  0.56247421  0.25687881     0.01990
H1503       H  0.12984836  0.48255824  0.21787595     0.14970
H1504       H  0.14676770  0.57475131  0.29648934     0.14970
C1505       C  0.19118432  0.60113415  0.25667242     0.36620
C1506       C  0.07819412  0.46174262  0.25726079     0.36530
N1507       N  0.20987679  0.63259562  0.25662818    -0.43720
N1508       N  0.05270637  0.43555722  0.25675950    -0.43720
C1509       C  0.34243104  0.64926276  0.23754345    -0.00130
C1510       C  0.37840342  0.67101452  0.24625580    -0.12010
C1511       C  0.40228434  0.65562841  0.26754116     0.02100
C1512       C  0.38975707  0.61810342  0.28043996    -0.00220
C1513       C  0.35231547  0.59844706  0.27296715    -0.11950
C1514       C  0.32942035  0.61275525  0.25141730     0.01990
H1515       H  0.38934695  0.69838858  0.23544391     0.14970
H1516       H  0.34251453  0.56970397  0.28286657     0.14970
C1517       C  0.29662211  0.58519071  0.24202748     0.36620
C1518       C  0.43895319  0.67914726  0.27582684     0.36530
N1519       N  0.27184201  0.56092488  0.23498507    -0.43720
N1520       N  0.46800327  0.69865130  0.28240106    -0.43720
C1521       C  0.25543718  0.96691400  0.97615522    -0.00130
C1522       C  0.23957564  0.00832458  0.97212558    -0.12010
C1523       C  0.21892090  0.03112223  0.99212345     0.02100
C1524       C  0.21305078  0.01278529  0.01702963    -0.00220
C1525       C  0.22386207  0.96974152  0.02021038    -0.11950
C1526       C  0.24469053  0.94672194  0.00002103     0.01990
H1527       H  0.24484462  0.02428531  0.95370703     0.14970
H1528       H  0.22016771  0.95537998  0.03938396     0.14970
C1529       C  0.25686622  0.90346081  0.00512695     0.36620
C1530       C  0.20868178  0.07530354  0.98761307     0.36530
N1531       N  0.26621743  0.86867243  0.00946904    -0.43720
N1532       N  0.20087934  0.11074149  0.98400776    -0.43720
C1533       C  0.32385752  0.21138973  0.02157113     0.00350
C1534       C  0.28591069  0.21287389  0.00723769    -0.12010
C1535       C  0.27943468  0.24372766  0.98766412     0.02100
C1536       C  0.31142380  0.27337670  0.98186344    -0.00220
C1537       C  0.34936873  0.27168607  0.99602904    -0.11950
C1538       C  0.35560124  0.24146021  0.01585931     0.01990
H1539       H  0.26069379  0.19106387  0.01202470     0.14970
H1540       H  0.37447798  0.29368063  0.99133349     0.14970
C1541       C  0.39514024  0.24172886  0.03006480     0.36620
C1542       C  0.23940474  0.24498526  0.97402781     0.36530
N1543       N  0.42676867  0.24192759  0.04150527    -0.43720
N1544       N  0.20740153  0.24595392  0.96300504    -0.43720
C1545       C  0.25775082  0.82020779  0.12767658    -0.00130
C1546       C  0.25424708  0.84229274  0.15174379    -0.12010
C1547       C  0.26288946  0.88597262  0.15363936     0.02100
C1548       C  0.27692612  0.90854371  0.13142013    -0.00220
C1549       C  0.28222671  0.88646506  0.10767500    -0.11950
C1550       C  0.27228912  0.84314542  0.10545934     0.01990
H1551       H  0.24333009  0.82574548  0.16906596     0.14970
H1552       H  0.29205023  0.90369341  0.09033598     0.14970
C1553       C  0.27654722  0.82425229  0.07975705     0.36620
C1554       C  0.25664716  0.90715193  0.17860928     0.36530
N1555       N  0.27963036  0.81030440  0.05875845    -0.43720
N1556       N  0.25159577  0.92414333  0.19861425    -0.43720
C1557       C  0.23040514  0.32202672  0.11240858    -0.00130
C1558       C  0.20846288  0.34397548  0.13235436    -0.12010
C1559       C  0.21160308  0.38791763  0.13468635     0.02100
C1560       C  0.23690794  0.41018015  0.11672004    -0.00220
C1561       C  0.25536985  0.38867521  0.09532619    -0.11950
C1562       C  0.25244063  0.34476315  0.09308219     0.01990
H1563       H  0.19084650  0.32676546  0.14709047     0.14970
H1564       H  0.27388279  0.40589753  0.08099646     0.14970
C1565       C  0.27308824  0.32377410  0.07116187     0.36620
C1566       C  0.18859855  0.40914089  0.15557833     0.36530
N1567       N  0.28955982  0.30714869  0.05352398    -0.43720
N1568       N  0.17001221  0.42603000  0.17229788    -0.43720
C1569       C  0.55211524  0.09002085  0.13156648    -0.00130
C1570       C  0.53380682  0.06952857  0.15325512    -0.12010
C1571       C  0.48975901  0.06640863  0.15565931     0.02100
C1572       C  0.46369372  0.08304685  0.13584389    -0.00220
C1573       C  0.48171178  0.10355821  0.11433717    -0.11950
C1574       C  0.52538585  0.10800750  0.11225323     0.01990
H1575       H  0.55384454  0.05602849  0.16837623     0.14970
H1576       H  0.46129314  0.11794536  0.09968542     0.14970
C1577       C  0.54104030  0.13388570  0.09109324     0.36620
C1578       C  0.47194814  0.04692295  0.17872660     0.36530
N1579       N  0.55302093  0.15495075  0.07412296    -0.43720
N1580       N  0.45762314  0.03144249  0.19724977    -0.43720
C1581       C  0.05402384  0.15353097  0.11769909    -0.00130
C1582       C  0.03033189  0.13776810  0.09648920    -0.12010
C1583       C  0.98601160  0.13623723  0.09748311     0.02100
C1584       C  0.96430003  0.14991167  0.12038044    -0.00220
C1585       C  0.98794019  0.16685638  0.14131896    -0.11950
C1586       C  0.03225911  0.16919140  0.14008524     0.01990
H1587       H  0.04663618  0.12577434  0.07916071     0.14970
H1588       H  0.97183604  0.17828780  0.15883775     0.14970
C1589       C  0.05448217  0.18615395  0.16253876     0.36620
C1590       C  0.96398057  0.11880517  0.07507656     0.36530
N1591       N  0.07242972  0.19993803  0.18043478    -0.43720
N1592       N  0.94642997  0.10491983  0.05705430    -0.43720
C1593       C  0.10184960  0.12523338  0.26794040    -0.00130
C1594       C  0.13901207  0.10266686  0.27417154    -0.12010
C1595       C  0.16189555  0.08048488  0.25481782     0.02100
C1596       C  0.14733574  0.07963835  0.22865425    -0.00220
C1597       C  0.10977558  0.10162140  0.22247101    -0.11950
C1598       C  0.08725814  0.12438799  0.24179206     0.01990
H1599       H  0.14877503  0.10024483  0.29450184     0.14970
H1600       H  0.09952774  0.10331159  0.20215884     0.14970
C1601       C  0.04869782  0.14623466  0.23457229     0.36620
C1602       C  0.20088655  0.05944530  0.26208839     0.36530
N1603       N  0.01773155  0.16377768  0.22895696    -0.43720
N1604       N  0.23212429  0.04258033  0.26790856    -0.43720
C1605       C  0.40636051  0.18041705  0.27645357    -0.00130
C1606       C  0.36577230  0.19918001  0.27816897    -0.12010
C1607       C  0.33737963  0.19799456  0.25694598     0.02100
C1608       C  0.34949785  0.17804405  0.23322009    -0.00220
C1609       C  0.38943350  0.15822033  0.23171938    -0.11950
C1610       C  0.41748533  0.15856630  0.25302332     0.01990
H1611       H  0.35630975  0.21555082  0.29607427     0.14970
H1612       H  0.39874106  0.14189720  0.21374422     0.14970
C1613       C  0.45625034  0.13439170  0.25033020     0.36620
C1614       C  0.29700080  0.21926945  0.25966364     0.36530
N1615       N  0.48694725  0.11447979  0.24780312    -0.43720
N1616       N  0.26465097  0.23638385  0.26192398    -0.43720
loop_ 
_geom_bond_atom_site_label_1 
_geom_bond_atom_site_label_2 
_geom_bond_distance 
_geom_bond_site_symmetry_2 
_ccdc_geom_bond_type 
C1           N19   1.330       .  A
C1           C38   1.485       .  S
C1         C1596   1.467       .  S
N2           N19   1.309       .  A
N2           N24   1.317       .  A
N2          Co39   2.016       .  S
C3           N28   1.324       .  A
C3           C41   1.439       .  S
C3           H48   1.082       .  S
H4           C45   1.081       .  S
C5           N29   1.333       .  A
C5            C9   1.454       .  S
C5           H34   1.082       .  S
Co6          N24   2.136       .  S
Co6          N14   2.069       .  S
Co6          N46   2.067       .  S
Co6          N22   2.142       .  S
Co6         Cl50   2.469       .  S
N7           C45   1.350   1_545  A
N7           N14   1.324       .  A
N7           Co8   2.139       .  S
Co8          N11   2.084       .  S
Co8          N28   2.034       .  S
Co8          N15   2.137       .  S
Co8         Cl50   2.424       .  S
C9           N47   1.353       .  A
C9         C1572   1.460       .  S
N10          N17   1.314       .  A
N10          N40   1.320       .  A
N10         Co43   2.049       .  S
N11          N29   1.316       .  A
N11          N47   1.324       .  A
N12          C41   1.366       .  A
N12          N22   1.336       .  A
H13          C38   1.081       .  S
N14          N35   1.322   1_545  A
N15          N33   1.317       .  A
N15          N20   1.336       .  A
C16          N20   1.364       .  A
C16          C44   1.444       .  S
C16        C1533   1.489       .  S
N17          C32   1.351       .  A
N17         Co39   2.110       .  S
C18          N46   1.337       .  A
C18          C21   1.458       .  S
C18          H52   1.082       .  S
C21          N42   1.355       .  A
C21        C1581   1.488       .  S
N22          N28   1.319       .  A
N23          C49   1.333       .  A
N23          N25   1.314       .  A
N23         Co39   2.044       .  S
N24          C38   1.354       .  A
N25          N53   1.319       .  A
N25         Co43   2.074       .  S
H26          C49   1.082       .  S
H27          C44   1.081       .  S
N29         Co43   2.060       .  S
N30          N42   1.327       .  A
N30          N46   1.322       .  A
N30         Co39   2.118       .  S
C31          N35   1.345       .  A
C31          C45   1.476       .  S
C31        C1548   1.489       .  S
C32          C51   1.472       .  S
C32          H36   1.081       .  S
N33          C44   1.333       .  A
N33         Co43   2.047       .  S
C37          N53   1.349       .  A
C37          C49   1.455       .  S
C37        C1557   1.461       .  S
Co39        Cl50   2.422       .  S
N40          C51   1.344       .  A
C41        C1524   1.480       .  S
Co43        Cl50   2.461       .  S
C51        C1608   1.485       .  S
C54          N72   1.360       .  A
C54          C91   1.454       .  S
C54        C1497   1.488       .  S
N55          N72   1.333       .  A
N55          N77   1.319       .  A
N55         Co92   2.127       .  S
C56          N81   1.340       .  A
C56          C94   1.467       .  S
C56         H101   1.078       .  S
H57          C98   1.081       .  S
C58          N82   1.328       .  A
C58          C62   1.454       .  S
C58          H87   1.082       .  S
Co59         N77   2.068       .  S
Co59         N67   2.096       .  S
Co59         N99   2.112       .  S
Co59         N75   2.107       .  S
Co59       Cl103   2.468       .  S
N60          C98   1.335       .  A
N60          N67   1.319       .  A
N60         Co61   2.058       .  S
Co61         N64   2.120       .  S
Co61         N81   2.101       .  S
Co61         N68   2.041       .  S
Co61       Cl103   2.429       .  S
C62         N100   1.363       .  A
C62        C1449   1.483       .  S
N63          N70   1.314       .  A
N63          N93   1.318       .  A
N63         Co96   2.056       .  S
N64          N82   1.317       .  A
N64         N100   1.332       .  A
N65          C94   1.360       .  A
N65          N75   1.330       .  A
H66          C91   1.082       .  S
N67          N88   1.326       .  A
N68          N86   1.320       .  A
N68          N73   1.311       .  A
C69          N73   1.335       .  A
C69          C97   1.464       .  S
C69        C1464   1.463       .  S
N70          C85   1.337       .  A
N70         Co92   2.050       .  S
C71          N99   1.351       .  A
C71          C74   1.479       .  S
C71         H105   1.081       .  S
C74          N95   1.338       .  A
C74        C1509   1.476       .  S
N75          N81   1.321       .  A
N76         C102   1.341       .  A
N76          N78   1.321       .  A
N76         Co92   2.103       .  S
N77          C91   1.335       .  A
N78         N106   1.332       .  A
N78         Co96   2.105       .  S
H79         C102   1.081       .  S
H80          C97   1.081       .  S
N82         Co96   2.059       .  S
N83          N95   1.314       .  A
N83          N99   1.317       .  A
N83         Co92   2.049       .  S
C84          N88   1.351       .  A
C84          C98   1.454       .  S
C84        C1485   1.475       .  S
C85         C104   1.458       .  S
C85          H89   1.081       .  S
N86          C97   1.351       .  A
N86         Co96   2.087       .  S
C90         N106   1.359       .  A
C90         C102   1.462       .  S
C90        C1476   1.500       .  S
Co92       Cl103   2.427       .  S
N93         C104   1.342       .  A
C94        C1545   1.506       .  S
Co96       Cl103   2.455       .  S
C104       C1560   1.461       .  S
C107        N125   1.351       .  A
C107        C144   1.464       .  S
C107       C1584   1.490       .  S
N108        N125   1.325       .  A
N108        N130   1.322       .  A
N108       Co145   2.079       .  S
C109        N134   1.321       .  A
C109        C147   1.437       .  S
C109        H154   1.082       .  S
H110        C151   1.081       .  S
C111        N135   1.342   1_565  A
C111        C115   1.455       .  S
C111        H140   1.081       .  S
Co112       N130   2.102       .  S
Co112       N120   2.066       .  S
Co112       N152   2.099       .  S
Co112       N128   2.118       .  S
Co112      Cl156   2.464       .  S
N113        C151   1.351       .  A
N113        N120   1.321       .  A
N113       Co114   2.125       .  S
Co114       N117   2.061       .  S
Co114       N134   2.025       .  S
Co114       N121   2.095       .  S
Co114      Cl156   2.429       .  S
C115        N153   1.346       .  A
C115       C1404   1.465       .  S
N116        N123   1.318       .  A
N116        N146   1.309       .  A
N116       Co149   2.023       .  S
N117        N135   1.319       .  A
N117        N153   1.323   1_545  A
N118        C147   1.362       .  A
N118        N128   1.332       .  A
H119        C144   1.081       .  S
N120        N141   1.320       .  A
N121        N139   1.316       .  A
N121        N126   1.325       .  A
C122        N126   1.353       .  A
C122        C150   1.457       .  S
C122       C1569   1.478       .  S
N123        C138   1.360       .  A
N123       Co145   2.143       .  S
C124        N152   1.347       .  A
C124        C127   1.472       .  S
C124        H158   1.081       .  S
C127        N148   1.351       .  A
C127       C1413   1.502       .  S
N128        N134   1.317       .  A
N129        C155   1.329       .  A
N129        N131   1.316       .  A
N129       Co145   2.051       .  S
N130        C144   1.342       .  A
N131        N159   1.333       .  A
N131       Co149   2.119       .  S
H132        C155   1.080       .  S
H133        C150   1.080       .  S
N135       Co149   2.092       .  S
N136        N148   1.324       .  A
N136        N152   1.322       .  A
N136       Co145   2.104       .  S
C137        N141   1.346       .  A
C137        C151   1.476       .  S
C137       C1437   1.493       .  S
C138        C157   1.488       .  S
C138        H142   1.081       .  S
N139        C150   1.332       .  A
N139       Co149   2.044       .  S
C143        N159   1.363       .  A
C143        C155   1.445       .  S
C143       C1389   1.478       .  S
Co145      Cl156   2.448       .  S
N146        C157   1.331       .  A
C147       C1428   1.473       .  S
Co149      Cl156   2.448       .  S
C157       C1377   1.480       .  S
C160        N178   1.348       .  A
C160        C197   1.460       .  S
C160       C1488   1.475       .  S
N161        N178   1.322       .  A
N161        N183   1.315       .  A
N161       Co198   2.059       .  S
C162        N187   1.329       .  A
C162        C200   1.460       .  S
C162        H207   1.082       .  S
H163        C204   1.081       .  S
C164        N188   1.340       .  A
C164        C168   1.466       .  S
C164        H193   1.080       .  S
Co165       N183   2.083       .  S
Co165       N173   2.029       .  S
Co165       N205   2.059       .  S
Co165       N181   2.092       .  S
Co165      Cl209   2.453       .  S
N166        C204   1.356       .  A
N166        N173   1.319       .  A
N166       Co167   2.133       .  S
Co167       N170   2.087       .  S
Co167       N187   2.066       .  S
Co167       N174   2.108       .  S
Co167      Cl209   2.441       .  S
C168        N206   1.355       .  A
C168       C1416   1.501       .  S
N169        N176   1.320       .  A
N169        N199   1.316       .  A
N169       Co202   2.053       .  S
N170        N188   1.319       .  A
N170        N206   1.328       .  A
N171        C200   1.356       .  A
N171        N181   1.328       .  A
H172        C197   1.081       .  S
N173        N194   1.311       .  A
N174        N192   1.323       .  A
N174        N179   1.325       .  A
C175        N179   1.351       .  A
C175        C203   1.472       .  S
C175       C1473   1.502       .  S
N176        C191   1.348       .  A
N176       Co198   2.110       .  S
C177        N205   1.338       .  A
C177        C180   1.452       .  S
C177        H211   1.082       .  S
C180        N201   1.349       .  A
C180       C1401   1.466       .  S
N181        N187   1.316       .  A
N182        C208   1.316       .  A
N182        N184   1.318       .  A
N182       Co198   2.021       .  S
N183        C197   1.341       .  A
N184        N212   1.337       .  A
N184       Co202   2.128       .  S
H185        C208   1.082       .  S
H186        C203   1.081       .  S
N188       Co202   2.098       .  S
N189        N201   1.326       .  A
N189        N205   1.318       .  A
N189       Co198   2.097       .  S
C190        N194   1.333       .  A
C190        C204   1.482       .  S
C190       C1365   1.471       .  S
C191        C210   1.473       .  S
C191        H195   1.081       .  S
N192        C203   1.351       .  A
N192       Co202   2.108       .  S
C196        N212   1.365       .  A
C196        C208   1.431       .  S
C196       C1344   1.476       .  S
Co198      Cl209   2.425       .  S
N199        C210   1.341       .  A
C200       C1353   1.475       .  S
Co202      Cl209   2.465       .  S
C210       C1329   1.472       .  S
C213        N231   1.348       .  A
C213        C250   1.466       .  S
C213       C1452   1.487       .  S
N214        N231   1.320       .  A
N214        N236   1.319       .  A
N214       Co251   2.069       .  S
C215        N240   1.322       .  A
C215        C253   1.444       .  S
C215        H260   1.082       .  S
H216        C257   1.082       .  S
C217        N241   1.336       .  A
C217        C221   1.462       .  S
C217        H246   1.079       .  S
Co218       N236   2.102       .  S
Co218       N226   2.071       .  S
Co218       N258   2.113       .  S
Co218       N234   2.134       .  S
Co218      Cl262   2.469       .  S
N219        C257   1.346       .  A
N219        N226   1.322       .  A
N219       Co220   2.110       .  S
Co220       N223   2.070       .  S
Co220       N240   2.035       .  S
Co220       N227   2.114       .  S
Co220      Cl262   2.425       .  S
C221        N259   1.351       .  A
C221       C1317   1.480       .  S
N222        N229   1.322       .  A
N222        N252   1.323       .  A
N222       Co255   2.070       .  S
N223        N241   1.312       .  A
N223        N259   1.324       .  A
N224        C253   1.367       .  A
N224        N234   1.339       .  A
H225        C250   1.081       .  S
N226        N247   1.318       .  A
N227        N245   1.316       .  A
N227        N232   1.331       .  A
C228        N232   1.359       .  A
C228        C256   1.457       .  S
C228       C1269   1.495       .  S
N229        C244   1.353       .  A
N229       Co251   2.133       .  S
C230        N258   1.344       .  A
C230        C233   1.470       .  S
C230        H264   1.081       .  S
C233        N254   1.356       .  A
C233       C1305   1.508       .  S
N234        N240   1.317       .  A
N235        C261   1.347       .  A
N235        N237   1.315       .  A
N235       Co251   2.082       .  S
N236        C250   1.348       .  A
N237        N265   1.312       .  A
N237       Co255   2.052       .  S
H238        C261   1.080       .  S
H239        C256   1.080       .  S
N241       Co255   2.060       .  S
N242        N254   1.331       .  A
N242        N258   1.328       .  A
N242       Co251   2.128       .  S
C243        N247   1.348       .  A
C243        C257   1.467       .  S
C243       C1293   1.472       .  S
C244        C263   1.474       .  S
C244        H248   1.081       .  S
N245        C256   1.341       .  A
N245       Co255   2.077       .  S
C249        N265   1.343       .  A
C249        C261   1.470       .  S
C249       C1281   1.479       .  S
Co251      Cl262   2.449       .  S
N252        C263   1.342       .  A
C253       C1257   1.498       .  S
Co255      Cl262   2.452       .  S
C263       C1536   1.486       .  S
C266        N284   1.359       .  A
C266        C303   1.458       .  S
C266       C1521   1.508       .  S
N267        N284   1.334       .  A
N267        N289   1.314       .  A
N267       Co304   2.124       .  S
C268        N293   1.344       .  A
C268        C306   1.465       .  S
C268        H313   1.080       .  S
H269        C310   1.081       .  S
C270        N294   1.334       .  A
C270        C274   1.457       .  S
C270        H299   1.082       .  S
Co271       N289   2.058       .  S
Co271       N279   2.074       .  S
Co271       N311   2.064       .  S
Co271       N287   2.071       .  S
Co271      Cl315   2.473       .  S
N272        C310   1.342   1_565  A
N272        N279   1.313       .  A
N272       Co273   2.056       .  S
Co273       N276   2.106       .  S
Co273       N293   2.099       .  S
Co273       N280   2.020       .  S
Co273      Cl315   2.402       .  S
C274        N312   1.351       .  A
C274       C1248   1.471       .  S
N275        N282   1.310       .  A
N275        N305   1.341       .  A
N275       Co308   2.142       .  S
N276        N294   1.324       .  A
N276        N312   1.325       .  A
N277        C306   1.352       .  A
N277        N287   1.322       .  A
H278        C303   1.077   1_545  S
N279        N300   1.316   1_565  A
N280        N298   1.316       .  A
N280        N285   1.307       .  A
C281        N285   1.329       .  A
C281        C309   1.485       .  S
C281       C1209   1.465       .  S
N282        C297   1.307       .  A
N282       Co304   2.002       .  S
C283        N311   1.336       .  A
C283        C286   1.464       .  S
C283        H317   1.078       .  S
C286        N307   1.351       .  A
C286       C1233   1.479       .  S
N287        N293   1.316       .  A
N288        C314   1.357       .  A
N288        N290   1.324       .  A
N288       Co304   2.157       .  S
N289        C303   1.336       .  A
N290        N318   1.321       .  A
N290       Co308   2.061       .  S
H291        C314   1.081       .  S
H292        C309   1.081       .  S
N294       Co308   2.070       .  S
N295        N307   1.321       .  A
N295        N311   1.315       .  A
N295       Co304   2.069       .  S
C296        N300   1.346       .  A
C296        C310   1.463       .  S
C296       C1320   1.471       .  S
C297        C316   1.439       .  S
C297        H301   1.080       .  S
N298        C309   1.353       .  A
N298       Co308   2.122       .  S
C302        N318   1.346       .  A
C302        C314   1.483       .  S
C302       C1308   1.504       .  S
Co304      Cl315   2.382       .  S
N305        C316   1.375       .  A
C306       C1221   1.487       .  S
Co308      Cl315   2.497       .  S
C316       C1461   1.504       .  S
C319        N337   1.361       .  A
C319        C356   1.458       .  S
C319       C1332   1.494       .  S
N320        N337   1.328       .  A
N320        N342   1.320       .  A
N320       Co357   2.114       .  S
C321        N346   1.339       .  A
C321        C359   1.460       .  S
C321        H366   1.081       .  S
H322        C363   1.081       .  S
C323        N347   1.332       .  A
C323        C327   1.457       .  S
C323        H352   1.081       .  S
Co324       N342   2.063       .  S
Co324       N332   2.093       .  S
Co324       N364   2.078       .  S
Co324       N340   2.084       .  S
Co324      Cl368   2.434       .  S
N325        C363   1.345       .  A
N325        N332   1.319       .  A
N325       Co326   2.094       .  S
Co326       N329   2.077       .  S
Co326       N346   2.074       .  S
Co326       N333   2.087       .  S
Co326      Cl368   2.467       .  S
C327        N365   1.350       .  A
C327       C1284   1.471       .  S
N328        N335   1.320       .  A
N328        N358   1.325       .  A
N328       Co361   2.080       .  S
N329        N347   1.319       .  A
N329        N365   1.324       .  A
N330        C359   1.350       .  A
N330        N340   1.325       .  A
H331        C356   1.076       .  S
N332        N353   1.327       .  A
N333        N351   1.318       .  A
N333        N338   1.323       .  A
C334        N338   1.352       .  A
C334        C362   1.462       .  S
C334       C1161   1.474       .  S
N335        C350   1.344       .  A
N335       Co357   2.102       .  S
C336        N364   1.332       .  A
C336        C339   1.466       .  S
C336        H370   1.074       .  S
C339        N360   1.356       .  A
C339       C1296   1.494       .  S
N340        N346   1.317       .  A
N341        C367   1.348       .  A
N341        N343   1.319       .  A
N341       Co357   2.107       .  S
N342        C356   1.332       .  A
N343        N371   1.322       .  A
N343       Co361   2.078       .  S
H344        C367   1.080       .  S
H345        C362   1.082       .  S
N347       Co361   2.070       .  S
N348        N360   1.326       .  A
N348        N364   1.318       .  A
N348       Co357   2.089       .  S
C349        N353   1.352       .  A
C349        C363   1.465       .  S
C349       C1185   1.488       .  S
C350        C369   1.468       .  S
C350        H354   1.081       .  S
N351        C362   1.342       .  A
N351       Co361   2.084       .  S
C355        N371   1.350       .  A
C355        C367   1.474       .  S
C355       C1197   1.496       .  S
Co357      Cl368   2.470       .  S
N358        C369   1.347       .  A
C359       C1173   1.476       .  S
Co361      Cl368   2.432       .  S
C369       C1392   1.480       .  S
C372        N390   1.331       .  A
C372        C409   1.491       .  S
C372       C1341   1.506       .  S
N373        N390   1.305       .  A
N373        N395   1.310       .  A
N373       Co410   2.029       .  S
C374        N399   1.335       .  A
C374        C412   1.452       .  S
C374        H419   1.082       .  S
H375        C416   1.081       .  S
C376        N400   1.333   1_545  A
C376        C380   1.450       .  S
C376        H405   1.080       .  S
Co377       N395   2.120       .  S
Co377       N385   2.094       .  S
Co377       N417   2.053       .  S
Co377       N393   2.098       .  S
Co377      Cl421   2.477       .  S
N378        C416   1.341       .  A
N378        N385   1.330       .  A
N378       Co379   2.110       .  S
Co379       N382   2.100       .  S
Co379       N399   2.065       .  S
Co379       N386   2.126       .  S
Co379      Cl421   2.418       .  S
C380        N418   1.357       .  A
C380       C1200   1.479       .  S
N381        N388   1.318       .  A
N381        N411   1.329       .  A
N381       Co414   2.080       .  S
N382        N400   1.313       .  A
N382        N418   1.331   1_565  A
N383        C412   1.355       .  A
N383        N393   1.330       .  A
H384        C409   1.080       .  S
N385        N406   1.321       .  A
N386        N404   1.322       .  A
N386        N391   1.331       .  A
C387        N391   1.359       .  A
C387        C415   1.450       .  S
C387       C1137   1.482       .  S
N388        C403   1.344       .  A
N388       Co410   2.111       .  S
C389        N417   1.334       .  A
C389        C392   1.452       .  S
C389        H423   1.082       .  S
C392        N413   1.361       .  A
C392       C1188   1.485       .  S
N393        N399   1.319       .  A
N394        C420   1.338       .  A
N394        N396   1.311       .  A
N394       Co410   2.045       .  S
N395        C409   1.362       .  A
N396        N424   1.319       .  A
N396       Co414   2.073       .  S
H397        C420   1.078       .  S
H398        C415   1.080       .  S
N400       Co414   2.049       .  S
N401        N413   1.332       .  A
N401        N417   1.323       .  A
N401       Co410   2.154       .  S
C402        N406   1.349       .  A
C402        C416   1.460       .  S
C402       C1245   1.468       .  S
C403        C422   1.468       .  S
C403        H407   1.078       .  S
N404        C415   1.338       .  A
N404       Co414   2.076       .  S
C408        N424   1.350       .  A
C408        C420   1.460       .  S
C408       C1236   1.477       .  S
Co410      Cl421   2.403       .  S
N411        C422   1.352       .  A
C412       C1149   1.482       .  S
Co414      Cl421   2.470       .  S
C422       C1380   1.506       .  S
C425        N443   1.364       .  A
C425        C462   1.464       .  S
C425       C1260   1.522       .  S
N426        N443   1.336       .  A
N426        N448   1.314       .  A
N426       Co463   2.114   1_455  S
C427        N452   1.332       .  A
C427        C465   1.451       .  S
C427        H472   1.082       .  S
H428        C469   1.080       .  S
C429        N453   1.328       .  A
C429        C433   1.451       .  S
C429        H458   1.082   1_455  S
Co430       N448   2.082       .  S
Co430       N438   2.049       .  S
Co430       N470   2.049       .  S
Co430       N446   2.094       .  S
Co430      Cl474   2.447       .  S
N431        C469   1.335       .  A
N431        N438   1.313       .  A
N431       Co432   2.036       .  S
Co432       N435   2.098       .  S
Co432       N452   2.067       .  S
Co432       N439   2.033       .  S
Co432      Cl474   2.432       .  S
C433        N471   1.355       .  A
C433       C1092   1.469       .  S
N434        N441   1.315       .  A
N434        N464   1.330       .  A
N434       Co467   2.105       .  S
N435        N453   1.318       .  A
N435        N471   1.327       .  A
N436        C465   1.356       .  A
N436        N446   1.329       .  A
H437        C462   1.074       .  S
N438        N459   1.310       .  A
N439        N457   1.316   1_455  A
N439        N444   1.313       .  A
C440        N444   1.336   1_655  A
C440        C468   1.481       .  S
C440       C1065   1.472       .  S
N441        C456   1.328       .  A
N441       Co463   2.045       .  S
C442        N470   1.332       .  A
C442        C445   1.453   1_455  S
C442        H476   1.082       .  S
C445        N466   1.359       .  A
C445       C1104   1.487       .  S
N446        N452   1.319       .  A
N447        C473   1.348       .  A
N447        N449   1.326       .  A
N447       Co463   2.124       .  S
N448        C462   1.333       .  A
N449        N477   1.318       .  A
N449       Co467   2.068       .  S
H450        C473   1.081       .  S
H451        C468   1.081       .  S
N453       Co467   2.047   1_455  S
N454        N466   1.332       .  A
N454        N470   1.317   1_655  A
N454       Co463   2.122       .  S
C455        N459   1.339       .  A
C455        C469   1.461       .  S
C455       C1125   1.458       .  S
C456        C475   1.451       .  S
C456        H460   1.082       .  S
N457        C468   1.350       .  A
N457       Co467   2.116       .  S
C461        N477   1.343       .  A
C461        C473   1.475       .  S
C461       C1113   1.483       .  S
Co463      Cl474   2.434   1_655  S
N464        C475   1.358       .  A
C465       C1077   1.471       .  S
Co467      Cl474   2.448   1_655  S
C475       C1176   1.477       .  S
C478        N496   1.328       .  A
C478        C515   1.487       .  S
C478       C1212   1.468       .  S
N479        N496   1.307       .  A
N479        N501   1.317       .  A
N479       Co516   2.015       .  S
C480        N505   1.324       .  A
C480        C518   1.441       .  S
C480        H525   1.082   1_455  S
H481        C522   1.078       .  S
C482        N506   1.346       .  A
C482        C486   1.469       .  S
C482        H511   1.081       .  S
Co483       N501   2.134       .  S
Co483       N491   2.089       .  S
Co483       N523   2.090       .  S
Co483       N499   2.143       .  S
Co483      Cl527   2.489       .  S
N484        C522   1.344       .  A
N484        N491   1.320   1_655  A
N484       Co485   2.103       .  S
Co485       N488   2.057       .  S
Co485       N505   2.040   1_655  S
Co485       N492   2.100       .  S
Co485      Cl527   2.416   1_655  S
C486        N524   1.344       .  A
C486       C1041   1.481       .  S
N487        N494   1.314       .  A
N487        N517   1.320       .  A
N487       Co520   2.046       .  S
N488        N506   1.319       .  A
N488        N524   1.321       .  A
N489        C518   1.367       .  A
N489        N499   1.335       .  A
H490        C515   1.081       .  S
N491        N512   1.323       .  A
N492        N510   1.317       .  A
N492        N497   1.329       .  A
C493        N497   1.353       .  A
C493        C521   1.445       .  S
C493       C1032   1.465       .  S
N494        C509   1.352       .  A
N494       Co516   2.121   1_655  S
C495        N523   1.345       .  A
C495        C498   1.462       .  S
C495        H529   1.081       .  S
C498        N519   1.359       .  A
C498       C1053   1.502       .  S
N499        N505   1.320       .  A
N500        C526   1.331       .  A
N500        N502   1.316       .  A
N500       Co516   2.047       .  S
N501        C515   1.354       .  A
N502        N530   1.325       .  A
N502       Co520   2.103   1_455  S
H503        C526   1.082       .  S
H504        C521   1.081       .  S
N506       Co520   2.107       .  S
N507        N519   1.334       .  A
N507        N523   1.323       .  A
N507       Co516   2.140       .  S
C508        N512   1.355   1_645  A
C508        C522   1.471   1_545  S
C508       C1101   1.501       .  S
C509        C528   1.476       .  S
C509        H513   1.080   1_655  S
N510        C521   1.333       .  A
N510       Co520   2.047       .  S
C514        N530   1.356       .  A
C514        C526   1.451       .  S
C514       C1089   1.462       .  S
Co516      Cl527   2.407       .  S
N517        C528   1.346       .  A
C518       C1017   1.483       .  S
Co520      Cl527   2.477   1_655  S
C528       C1152   1.495       .  S
C531        N549   1.363       .  A
C531        C568   1.452       .  S
C531       C1272   1.497       .  S
N532        N549   1.334       .  A
N532        N554   1.315       .  A
N532       Co569   2.120       .  S
C533        N558   1.347       .  A
C533        C571   1.469       .  S
C533        H578   1.081       .  S
H534        C575   1.082       .  S
C535        N559   1.323       .  A
C535        C539   1.443       .  S
C535        H564   1.081       .  S
Co536       N554   2.065       .  S
Co536       N544   2.036       .  S
Co536       N576   2.031       .  S
Co536       N552   2.074       .  S
Co536      Cl580   2.418       .  S
N537        C575   1.340       .  A
N537        N544   1.314       .  A
N537       Co538   2.060       .  S
Co538       N541   2.117       .  S
Co538       N558   2.098       .  S
Co538       N545   2.029       .  S
Co538      Cl580   2.450       .  S
C539        N577   1.359       .  A
C539       C1005   1.474       .  S
N540        N547   1.317       .  A
N540        N570   1.332       .  A
N540       Co573   2.117       .  S
N541        N559   1.319       .  A
N541        N577   1.329       .  A
N542        C571   1.348       .  A
N542        N552   1.323       .  A
H543        C568   1.079       .  S
N544        N565   1.308       .  A
N545        N563   1.318       .  A
N545        N550   1.312       .  A
C546        N550   1.335       .  A
C546        C574   1.482       .  S
C546        C981   1.476       .  S
N547        C562   1.327       .  A
N547       Co569   2.037       .  S
C548        N576   1.324       .  A
C548        C551   1.439       .  S
C548        H582   1.081       .  S
C551        N572   1.353       .  A
C551        C993   1.449       .  S
N552        N558   1.316       .  A
N553        C579   1.348       .  A
N553        N555   1.323       .  A
N553       Co569   2.121       .  S
N554        C568   1.336       .  A
N555        N583   1.317       .  A
N555       Co573   2.054       .  S
H556        C579   1.081       .  S
H557        C574   1.081       .  S
N559       Co573   2.025       .  S
N560        N572   1.326       .  A
N560        N576   1.316       .  A
N560       Co569   2.087       .  S
C561        N565   1.336       .  A
C561        C575   1.463       .  S
C561       C1128   1.451       .  S
C562        C581   1.448       .  S
C562        H566   1.082       .  S
N563        C574   1.354       .  A
N563       Co573   2.131       .  S
C567        N583   1.340       .  A
C567        C579   1.472       .  S
C567       C1116   1.471       .  S
Co569      Cl580   2.455       .  S
N570        C581   1.359       .  A
C571        C972   1.490       .  S
Co573      Cl580   2.430       .  S
C581       C1164   1.479       .  S
C584        N602   1.362       .  A
C584        C621   1.442       .  S
C584       C1140   1.481       .  S
N585        N602   1.334       .  A
N585        N607   1.318       .  A
N585       Co622   2.134       .  S
C586        N611   1.341       .  A
C586        C624   1.456       .  S
C586        H631   1.081       .  S
H587        C628   1.082       .  S
C588        N612   1.325       .  A
C588        C592   1.445   1_565  S
C588        H617   1.079       .  S
Co589       N607   2.047       .  S
Co589       N597   2.077       .  S
Co589       N629   2.033       .  S
Co589       N605   2.076       .  S
Co589      Cl633   2.442       .  S
N590        C628   1.345       .  A
N590        N597   1.315       .  A
N590       Co591   2.074       .  S
Co591       N594   2.124       .  S
Co591       N611   2.077       .  S
Co591       N598   2.030       .  S
Co591      Cl633   2.423       .  S
C592        N630   1.360   1_545  A
C592       C1008   1.480       .  S
N593        N600   1.319       .  A
N593        N623   1.331       .  A
N593       Co626   2.115       .  S
N594        N612   1.318       .  A
N594        N630   1.329       .  A
N595        C624   1.353       .  A
N595        N605   1.326       .  A
H596        C621   1.080       .  S
N597        N618   1.318       .  A
N598        N616   1.316       .  A
N598        N603   1.306       .  A
C599        N603   1.322       .  A
C599        C627   1.492       .  S
C599        C945   1.486       .  S
N600        C615   1.330       .  A
N600       Co622   2.048       .  S
C601        N629   1.324       .  A
C601        C604   1.437       .  S
C601        H635   1.082       .  S
C604        N625   1.353       .  A
C604        C996   1.452       .  S
N605        N611   1.311       .  A
N606        C632   1.352       .  A
N606        N608   1.326       .  A
N606       Co622   2.139       .  S
N607        C621   1.331       .  A
N608        N636   1.328       .  A
N608       Co626   2.099       .  S
H609        C632   1.081       .  S
H610        C627   1.081       .  S
N612       Co626   2.024       .  S
N613        N625   1.326       .  A
N613        N629   1.319       .  A
N613       Co622   2.093       .  S
C614        N618   1.346       .  A
C614        C628   1.471       .  S
C614       C1044   1.479       .  S
C615        C634   1.449       .  S
C615        H619   1.082       .  S
N616        C627   1.359       .  A
N616       Co626   2.142       .  S
C620        N636   1.352       .  A
C620        C632   1.475       .  S
C620       C1056   1.503       .  S
Co622      Cl633   2.442       .  S
N623        C634   1.357       .  A
C624        C960   1.478       .  S
Co626      Cl633   2.465       .  S
C634       C1224   1.479       .  S
C637        N655   1.351       .  A
C637        C674   1.474       .  S
C637       C1440   1.504       .  S
N638        N655   1.326       .  A
N638        N660   1.320       .  A
N638       Co675   2.104   1_655  S
C639        N664   1.348       .  A
C639        C677   1.465       .  S
C639        H684   1.074   1_655  S
H640        C681   1.082       .  S
C641        N665   1.339       .  A
C641        C645   1.467   1_455  S
C641        H670   1.080       .  S
Co642       N660   2.101       .  S
Co642       N650   2.102       .  S
Co642       N682   2.082   1_545  S
Co642       N658   2.091       .  S
Co642      Cl686   2.467   1_655  S
N643        C681   1.341       .  A
N643        N650   1.317       .  A
N643       Co644   2.073       .  S
Co644       N647   2.105       .  S
Co644       N664   2.104       .  S
Co644       N651   2.049   1_655  S
Co644      Cl686   2.422   1_655  S
C645        N683   1.354       .  A
C645        C933   1.491       .  S
N646        N653   1.314       .  A
N646        N676   1.333       .  A
N646       Co679   2.121       .  S
N647        N665   1.324   1_655  A
N647        N683   1.326       .  A
N648        C677   1.353       .  A
N648        N658   1.326       .  A
H649        C674   1.081       .  S
N650        N671   1.329       .  A
N651        N669   1.315       .  A
N651        N656   1.312       .  A
C652        N656   1.338       .  A
C652        C680   1.475       .  S
C652       C1080   1.475       .  S
N653        C668   1.318       .  A
N653       Co675   2.020       .  S
C654        N682   1.338       .  A
C654        C657   1.460   1_655  S
C654        H688   1.082       .  S
C657        N678   1.348       .  A
C657        C921   1.474       .  S
N658        N664   1.319       .  A
N659        C685   1.351       .  A
N659        N661   1.322       .  A
N659       Co675   2.124       .  S
N660        C674   1.349       .  A
N661        N689   1.317       .  A
N661       Co679   2.056       .  S
H662        C685   1.081       .  S
H663        C680   1.081       .  S
N665       Co679   2.089       .  S
N666        N678   1.321       .  A
N666        N682   1.315   1_455  A
N666       Co675   2.053   1_565  S
C667        N671   1.355       .  A
C667        C681   1.456       .  S
C667        C897   1.486       .  S
C668        C687   1.435       .  S
C668        H672   1.079       .  S
N669        C680   1.354       .  A
N669       Co679   2.103       .  S
C673        N689   1.342       .  A
C673        C685   1.472       .  S
C673        C909   1.477       .  S
Co675      Cl686   2.415       .  S
N676        C687   1.366       .  A
C677       C1020   1.505   1_655  S
Co679      Cl686   2.478       .  S
C687       C1593   1.472       .  S
C690        N708   1.343       .  A
C690        C727   1.478       .  S
C690       C1500   1.482       .  S
N691        N708   1.317       .  A
N691        N713   1.316       .  A
N691       Co728   2.053       .  S
C692        N717   1.323       .  A
C692        C730   1.442   1_655  S
C692        H737   1.082       .  S
H693        C734   1.081       .  S
C694        N718   1.332       .  A
C694        C698   1.459       .  S
C694        H723   1.081       .  S
Co695       N713   2.118       .  S
Co695       N703   2.072   1_455  S
Co695       N735   2.085       .  S
Co695       N711   2.115       .  S
Co695      Cl739   2.464   1_455  S
N696        C734   1.347       .  A
N696        N703   1.324       .  A
N696       Co697   2.117       .  S
Co697       N700   2.066       .  S
Co697       N717   2.027       .  S
Co697       N704   2.095       .  S
Co697      Cl739   2.425       .  S
C698        N736   1.352       .  A
C698        C873   1.480       .  S
N699        N706   1.318       .  A
N699        N729   1.319       .  A
N699       Co732   2.059       .  S
N700        N718   1.315       .  A
N700        N736   1.325       .  A
N701        C730   1.365       .  A
N701        N711   1.330       .  A
H702        C727   1.081       .  S
N703        N724   1.321   1_655  A
N704        N722   1.318       .  A
N704        N709   1.325       .  A
C705        N709   1.349       .  A
C705        C733   1.454       .  S
C705       C1029   1.468       .  S
N706        C721   1.351       .  A
N706       Co728   2.113   1_655  S
C707        N735   1.335       .  A
C707        C710   1.463       .  S
C707        H741   1.082       .  S
C710        N731   1.357       .  A
C710        C885   1.491       .  S
N711        N717   1.313   1_455  A
N712        C738   1.339       .  A
N712        N714   1.316   1_455  A
N712       Co728   2.069       .  S
N713        C727   1.353       .  A
N714        N742   1.323       .  A
N714       Co732   2.072       .  S
H715        C738   1.081       .  S
H716        C733   1.081       .  S
N718       Co732   2.068       .  S
N719        N731   1.331       .  A
N719        N735   1.323       .  A
N719       Co728   2.119       .  S
C720        N724   1.346   1_655  A
C720        C734   1.470       .  S
C720        C936   1.482       .  S
C721        C740   1.477       .  S
C721        H725   1.076       .  S
N722        C733   1.339       .  A
N722       Co732   2.066       .  S
C726        N742   1.348   1_455  A
C726        C738   1.453       .  S
C726        C924   1.468       .  S
Co728      Cl739   2.432   1_455  S
N729        C740   1.344       .  A
C730       C1068   1.474       .  S
Co732      Cl739   2.455       .  S
C740       C1368   1.500       .  S
C743        N761   1.331       .  A
C743        C780   1.487       .  S
C743       C1425   1.497       .  S
N744        N761   1.307       .  A
N744        N766   1.313       .  A
N744       Co781   2.036       .  S
C745        N770   1.321       .  A
C745        C783   1.429       .  S
C745        H790   1.082       .  S
H746        C787   1.079   1_565  S
C747        N771   1.341       .  A
C747        C751   1.469       .  S
C747        H776   1.081       .  S
Co748       N766   2.125       .  S
Co748       N756   2.067       .  S
Co748       N788   2.063       .  S
Co748       N764   2.131       .  S
Co748      Cl792   2.501       .  S
N749        C787   1.348       .  A
N749        N756   1.324       .  A
N749       Co750   2.135       .  S
Co750       N753   2.055       .  S
Co750       N770   2.015       .  S
Co750       N757   2.102       .  S
Co750      Cl792   2.379       .  S
C751        N789   1.347       .  A
C751        C912   1.489       .  S
N752        N759   1.318       .  A
N752        N782   1.323       .  A
N752       Co785   2.064       .  S
N753        N771   1.312       .  A
N753        N789   1.323       .  A
N754        C783   1.369       .  A
N754        N764   1.335       .  A
H755        C780   1.081       .  S
N756        N777   1.319   1_545  A
N757        N775   1.315       .  A
N757        N762   1.329       .  A
C758        N762   1.353       .  A
C758        C786   1.463       .  S
C758        C984   1.504       .  S
N759        C774   1.345       .  A
N759       Co781   2.113       .  S
C760        N788   1.337       .  A
C760        C763   1.454       .  S
C760        H794   1.082       .  S
C763        N784   1.361       .  A
C763        C900   1.490       .  S
N764        N770   1.310       .  A
N765        C791   1.340       .  A
N765        N767   1.315       .  A
N765       Co781   2.055       .  S
N766        C780   1.357       .  A
N767        N795   1.318       .  A
N767       Co785   2.079       .  S
H768        C791   1.081       .  S
H769        C786   1.077       .  S
N771       Co785   2.082       .  S
N772        N784   1.333       .  A
N772        N788   1.326       .  A
N772       Co781   2.162       .  S
C773        N777   1.350       .  A
C773        C787   1.469   1_565  S
C773        C849   1.491       .  S
C774        C793   1.471       .  S
C774        H778   1.079       .  S
N775        C786   1.340       .  A
N775       Co785   2.075       .  S
C779        N795   1.346       .  A
C779        C791   1.459       .  S
C779        C864   1.466       .  S
Co781      Cl792   2.383       .  S
N782        C793   1.349       .  A
C783        C948   1.486       .  S
Co785      Cl792   2.476       .  S
C793       C1605   1.493       .  S
C796        N814   1.347       .  A
C796        C833   1.452       .  S
C796       C1512   1.474       .  S
N797        N814   1.326       .  A
N797        N819   1.319       .  A
N797       Co834   2.074       .  S
C798        N823   1.346       .  A
C798        C836   1.475       .  S
C798        H843   1.078       .  S
H799        C840   1.081       .  S
C800        N824   1.327       .  A
C800        C804   1.452       .  S
C800        H829   1.080       .  S
Co801       N819   2.083       .  S
Co801       N809   2.056       .  S
Co801       N841   2.071       .  S
Co801       N817   2.082       .  S
Co801      Cl845   2.436       .  S
N802        C840   1.359       .  A
N802        N809   1.317       .  A
N802       Co803   2.118       .  S
Co803       N806   2.126       .  S
Co803       N823   2.116       .  S
Co803       N810   2.080       .  S
Co803      Cl845   2.468       .  S
C804        N842   1.362       .  A
C804        C852   1.490       .  S
N805        N812   1.312       .  A
N805        N835   1.329       .  A
N805       Co838   2.093       .  S
N806        N824   1.324       .  A
N806        N842   1.332       .  A
N807        C836   1.351       .  A
N807        N817   1.323       .  A
H808        C833   1.079       .  S
N809        N830   1.313       .  A
N810        N828   1.318       .  A
N810        N815   1.321       .  A
C811        N815   1.351       .  A
C811        C839   1.469       .  S
C811        C957   1.492       .  S
N812        C827   1.329       .  A
N812       Co834   2.046       .  S
C813        N841   1.340       .  A
C813        C816   1.463       .  S
C813        H847   1.081       .  S
C816        N837   1.345       .  A
C816        C861   1.472       .  S
N817        N823   1.321       .  A
N818        C844   1.338       .  A
N818        N820   1.319       .  A
N818       Co834   2.081       .  S
N819        C833   1.339       .  A
N820        N848   1.323       .  A
N820       Co838   2.082       .  S
H821        C844   1.082       .  S
H822        C839   1.079       .  S
N824       Co838   2.069       .  S
N825        N837   1.320       .  A
N825        N841   1.313       .  A
N825       Co834   2.055       .  S
C826        N830   1.339       .  A
C826        C840   1.484       .  S
C826        C888   1.496       .  S
C827        C846   1.454       .  S
C827        H831   1.082       .  S
N828        C839   1.344       .  A
N828       Co838   2.089       .  S
C832        N848   1.352       .  A
C832        C844   1.457       .  S
C832        C876   1.464       .  S
Co834      Cl845   2.436       .  S
N835        C846   1.356       .  A
C836        C969   1.500       .  S
Co838      Cl845   2.440       .  S
C846       C1356   1.480       .  S
C849        C850   1.402       .  A
C849        C854   1.415       .  A
C850        H855   1.085       .  S
C850        C851   1.391       .  A
C851        C852   1.419       .  A
C851        C858   1.446       .  S
C852        C853   1.406       .  A
C853        H856   1.084       .  S
C853        C854   1.411       .  A
C854        C857   1.441       .  S
C857        N859   1.157       .  T
C858        N860   1.158       .  T
C861        C862   1.404       .  A
C861        C866   1.408       .  A
C862        H867   1.085       .  S
C862        C863   1.397       .  A
C863        C864   1.411       .  A
C863        C870   1.444       .  S
C864        C865   1.401       .  A
C865        H868   1.085       .  S
C865        C866   1.394       .  A
C866        C869   1.441       .  S
C869        N871   1.156       .  T
C870        N872   1.158       .  T
C873        C874   1.404       .  A
C873        C878   1.418       .  A
C874        H879   1.084       .  S
C874        C875   1.390       .  A
C875        C876   1.405       .  A
C875        C882   1.442       .  S
C876        C877   1.400       .  A
C877        H880   1.085       .  S
C877        C878   1.403       .  A
C878        C881   1.444       .  S
C881        N883   1.158       .  T
C882        N884   1.156       .  T
C885        C886   1.411       .  A
C885        C890   1.411       .  A
C886        H891   1.084       .  S
C886        C887   1.417       .  A
C887        C888   1.413       .  A
C887        C894   1.441       .  S
C888        C889   1.408       .  A
C889        H892   1.084       .  S
C889        C890   1.390       .  A
C890        C893   1.446       .  S
C893        N895   1.158       .  T
C894        N896   1.157       .  T
C897        C898   1.401       .  A
C897        C902   1.413       .  A
C898        H903   1.085       .  S
C898        C899   1.406       .  A
C899        C900   1.412       .  A
C899        C906   1.436       .  S
C900        C901   1.405       .  A
C901        H904   1.085       .  S
C901        C902   1.407       .  A
C902        C905   1.444       .  S
C905        N907   1.157       .  T
C906        N908   1.154       .  T
C909        C910   1.400       .  A
C909        C914   1.413       .  A
C910        H915   1.085       .  S
C910        C911   1.407       .  A
C911        C912   1.421       .  A
C911        C918   1.444       .  S
C912        C913   1.401       .  A
C913        H916   1.083       .  S
C913        C914   1.395       .  A
C914        C917   1.444       .  S
C917        N919   1.157       .  T
C918        N920   1.158       .  T
C921        C922   1.402       .  A
C921        C926   1.417       .  A
C922        H927   1.085       .  S
C922        C923   1.396       .  A
C923        C924   1.408       .  A
C923        C930   1.441       .  S
C924        C925   1.399       .  A
C925        H928   1.085       .  S
C925        C926   1.398       .  A
C926        C929   1.445       .  S
C929        N931   1.157       .  T
C930        N932   1.156   1_455  T
C933        C934   1.409       .  A
C933        C938   1.415       .  A
C934        H939   1.084       .  S
C934        C935   1.405       .  A
C935        C936   1.411       .  A
C935        C942   1.443       .  S
C936        C937   1.403       .  A
C937        H940   1.085       .  S
C937        C938   1.401       .  A
C938        C941   1.443   1_655  S
C941        N943   1.158       .  T
C942        N944   1.157       .  T
C945        C946   1.388       .  A
C945        C950   1.432       .  A
C946        H951   1.085       .  S
C946        C947   1.401       .  A
C947        C948   1.431   1_565  A
C947        C954   1.438       .  S
C948        C949   1.391   1_545  A
C949        H952   1.086   1_565  S
C949        C950   1.399       .  A
C950        C953   1.446       .  S
C953        N955   1.157       .  T
C954        N956   1.155   1_565  T
C957        C958   1.406       .  A
C957        C962   1.419       .  A
C958        H963   1.083       .  S
C958        C959   1.398       .  A
C959        C960   1.409       .  A
C959        C966   1.444       .  S
C960        C961   1.402       .  A
C961        H964   1.085       .  S
C961        C962   1.406       .  A
C962        C965   1.442       .  S
C965        N967   1.158       .  T
C966        N968   1.157       .  T
C969        C970   1.411       .  A
C969        C974   1.417       .  A
C970        H975   1.084       .  S
C970        C971   1.405       .  A
C971        C972   1.410       .  A
C971        C978   1.443       .  S
C972        C973   1.405       .  A
C973        H976   1.085       .  S
C973        C974   1.404       .  A
C974        C977   1.440       .  S
C977        N979   1.157       .  T
C978        N980   1.157       .  T
C981        C982   1.405       .  A
C981        C986   1.409       .  A
C982        H987   1.085       .  S
C982        C983   1.410       .  A
C983        C984   1.420       .  A
C983        C990   1.443       .  S
C984        C985   1.409       .  A
C985        H988   1.080       .  S
C985        C986   1.399       .  A
C986        C989   1.446       .  S
C989        N991   1.157       .  T
C990        N992   1.157       .  T
C993        C994   1.402       .  A
C993        C998   1.406       .  A
C994        H999   1.085       .  S
C994        C995   1.396       .  A
C995        C996   1.407       .  A
C995       C1002   1.444       .  S
C996        C997   1.400       .  A
C997       H1000   1.084       .  S
C997        C998   1.389       .  A
C998       C1001   1.446       .  S
C1001      N1003   1.157       .  T
C1002      N1004   1.157       .  T
C1005      C1006   1.393       .  A
C1005      C1010   1.420       .  A
C1006      H1011   1.085       .  S
C1006      C1007   1.397       .  A
C1007      C1008   1.424       .  A
C1007      C1014   1.443       .  S
C1008      C1009   1.396       .  A
C1009      H1012   1.085       .  S
C1009      C1010   1.395       .  A
C1010      C1013   1.445       .  S
C1013      N1015   1.158       .  T
C1014      N1016   1.158       .  T
C1017      C1018   1.404       .  A
C1017      C1022   1.413       .  A
C1018      H1023   1.085   1_565  S
C1018      C1019   1.411   1_565  A
C1019      C1020   1.422       .  A
C1019      C1026   1.441       .  S
C1020      C1021   1.408   1_545  A
C1021      H1024   1.084       .  S
C1021      C1022   1.401       .  A
C1022      C1025   1.446       .  S
C1025      N1027   1.157       .  T
C1026      N1028   1.158       .  T
C1029      C1030   1.401       .  A
C1029      C1034   1.408       .  A
C1030      H1035   1.085       .  S
C1030      C1031   1.398       .  A
C1031      C1032   1.409       .  A
C1031      C1038   1.445   1_655  S
C1032      C1033   1.401       .  A
C1033      H1036   1.085       .  S
C1033      C1034   1.401       .  A
C1034      C1037   1.444       .  S
C1037      N1039   1.157       .  T
C1038      N1040   1.157       .  T
C1041      C1042   1.401       .  A
C1041      C1046   1.418       .  A
C1042      H1047   1.085       .  S
C1042      C1043   1.400       .  A
C1043      C1044   1.412       .  A
C1043      C1050   1.443       .  S
C1044      C1045   1.401       .  A
C1045      H1048   1.084       .  S
C1045      C1046   1.401       .  A
C1046      C1049   1.445       .  S
C1049      N1051   1.157       .  T
C1050      N1052   1.157       .  T
C1053      C1054   1.408       .  A
C1053      C1058   1.414       .  A
C1054      H1059   1.085       .  S
C1054      C1055   1.413       .  A
C1055      C1056   1.415       .  A
C1055      C1062   1.443       .  S
C1056      C1057   1.407       .  A
C1057      H1060   1.084       .  S
C1057      C1058   1.415       .  A
C1058      C1061   1.443       .  S
C1061      N1063   1.157       .  T
C1062      N1064   1.157       .  T
C1065      C1066   1.402       .  A
C1065      C1070   1.413   1_655  A
C1066      H1071   1.085       .  S
C1066      C1067   1.401   1_655  A
C1067      C1068   1.415       .  A
C1067      C1074   1.445       .  S
C1068      C1069   1.402       .  A
C1069      H1072   1.085       .  S
C1069      C1070   1.399       .  A
C1070      C1073   1.443       .  S
C1073      N1075   1.157       .  T
C1074      N1076   1.157       .  T
C1077      C1078   1.406       .  A
C1077      C1082   1.407       .  A
C1078      H1083   1.084       .  S
C1078      C1079   1.410       .  A
C1079      C1080   1.410       .  A
C1079      C1086   1.442       .  S
C1080      C1081   1.405       .  A
C1081      H1084   1.086       .  S
C1081      C1082   1.389       .  A
C1082      C1085   1.446       .  S
C1085      N1087   1.157   1_455  T
C1086      N1088   1.157       .  T
C1089      C1090   1.399       .  A
C1089      C1094   1.406       .  A
C1090      H1095   1.086       .  S
C1090      C1091   1.392       .  A
C1091      C1092   1.410       .  A
C1091      C1098   1.445       .  S
C1092      C1093   1.406       .  A
C1093      H1096   1.084       .  S
C1093      C1094   1.403       .  A
C1094      C1097   1.443       .  S
C1097      N1099   1.157       .  T
C1098      N1100   1.157       .  T
C1101      C1102   1.406   1_655  A
C1101      C1106   1.422       .  A
C1102      H1107   1.084       .  S
C1102      C1103   1.397       .  A
C1103      C1104   1.413   1_455  A
C1103      C1110   1.446       .  S
C1104      C1105   1.402       .  A
C1105      H1108   1.085       .  S
C1105      C1106   1.411       .  A
C1106      C1109   1.441       .  S
C1109      N1111   1.158       .  T
C1110      N1112   1.157       .  T
C1113      C1114   1.405       .  A
C1113      C1118   1.415       .  A
C1114      H1119   1.085       .  S
C1114      C1115   1.398       .  A
C1115      C1116   1.407       .  A
C1115      C1122   1.445       .  S
C1116      C1117   1.403       .  A
C1117      H1120   1.085       .  S
C1117      C1118   1.405       .  A
C1118      C1121   1.442       .  S
C1121      N1123   1.157       .  T
C1122      N1124   1.157       .  T
C1125      C1126   1.412       .  A
C1125      C1130   1.403       .  A
C1126      H1131   1.084       .  S
C1126      C1127   1.388       .  A
C1127      C1128   1.397       .  A
C1127      C1134   1.444       .  S
C1128      C1129   1.407       .  A
C1129      H1132   1.085       .  S
C1129      C1130   1.385       .  A
C1130      C1133   1.444       .  S
C1133      N1135   1.158       .  T
C1134      N1136   1.157       .  T
C1137      C1138   1.406       .  A
C1137      C1142   1.408       .  A
C1138      H1143   1.085       .  S
C1138      C1139   1.406       .  A
C1139      C1140   1.409       .  A
C1139      C1146   1.443       .  S
C1140      C1141   1.407       .  A
C1141      H1144   1.085       .  S
C1141      C1142   1.405       .  A
C1142      C1145   1.443       .  S
C1145      N1147   1.157       .  T
C1146      N1148   1.157       .  T
C1149      C1150   1.406       .  A
C1149      C1154   1.406       .  A
C1150      H1155   1.084       .  S
C1150      C1151   1.411       .  A
C1151      C1152   1.417       .  A
C1151      C1158   1.442       .  S
C1152      C1153   1.409       .  A
C1153      H1156   1.084       .  S
C1153      C1154   1.397       .  A
C1154      C1157   1.443       .  S
C1157      N1159   1.156       .  T
C1158      N1160   1.157   1_655  T
C1161      C1162   1.404       .  A
C1161      C1166   1.408       .  A
C1162      H1167   1.084       .  S
C1162      C1163   1.408       .  A
C1163      C1164   1.413       .  A
C1163      C1170   1.442       .  S
C1164      C1165   1.404       .  A
C1165      H1168   1.086       .  S
C1165      C1166   1.394       .  A
C1166      C1169   1.444       .  S
C1169      N1171   1.157       .  T
C1170      N1172   1.157       .  T
C1173      C1174   1.407       .  A
C1173      C1178   1.410       .  A
C1174      H1179   1.085       .  S
C1174      C1175   1.406       .  A
C1175      C1176   1.406       .  A
C1175      C1182   1.442       .  S
C1176      C1177   1.405       .  A
C1177      H1180   1.084       .  S
C1177      C1178   1.394       .  A
C1178      C1181   1.446       .  S
C1181      N1183   1.158       .  T
C1182      N1184   1.157       .  T
C1185      C1186   1.404       .  A
C1185      C1190   1.414       .  A
C1186      H1191   1.085       .  S
C1186      C1187   1.405       .  A
C1187      C1188   1.412       .  A
C1187      C1194   1.444       .  S
C1188      C1189   1.404       .  A
C1189      H1192   1.084       .  S
C1189      C1190   1.408       .  A
C1190      C1193   1.444       .  S
C1193      N1195   1.157       .  T
C1194      N1196   1.157       .  T
C1197      C1198   1.408       .  A
C1197      C1202   1.419       .  A
C1198      H1203   1.085       .  S
C1198      C1199   1.400       .  A
C1199      C1200   1.408       .  A
C1199      C1206   1.445       .  S
C1200      C1201   1.403       .  A
C1201      H1204   1.085       .  S
C1201      C1202   1.409       .  A
C1202      C1205   1.442       .  S
C1205      N1207   1.158       .  T
C1206      N1208   1.157       .  T
C1209      C1210   1.401       .  A
C1209      C1214   1.415       .  A
C1210      H1215   1.085       .  S
C1210      C1211   1.399       .  A
C1211      C1212   1.416       .  A
C1211      C1218   1.446       .  S
C1212      C1213   1.402       .  A
C1213      H1216   1.085       .  S
C1213      C1214   1.402       .  A
C1214      C1217   1.444       .  S
C1217      N1219   1.157       .  T
C1218      N1220   1.157       .  T
C1221      C1222   1.402       .  A
C1221      C1226   1.416       .  A
C1222      H1227   1.081       .  S
C1222      C1223   1.395       .  A
C1223      C1224   1.411       .  A
C1223      C1230   1.447       .  S
C1224      C1225   1.404       .  A
C1225      H1228   1.084       .  S
C1225      C1226   1.407       .  A
C1226      C1229   1.442       .  S
C1229      N1231   1.157       .  T
C1230      N1232   1.158       .  T
C1233      C1234   1.406       .  A
C1233      C1238   1.413       .  A
C1234      H1239   1.085       .  S
C1234      C1235   1.398       .  A
C1235      C1236   1.414       .  A
C1235      C1242   1.443       .  S
C1236      C1237   1.402       .  A
C1237      H1240   1.085       .  S
C1237      C1238   1.392       .  A
C1238      C1241   1.440       .  S
C1241      N1243   1.156       .  T
C1242      N1244   1.158       .  T
C1245      C1246   1.400       .  A
C1245      C1250   1.409       .  A
C1246      H1251   1.085       .  S
C1246      C1247   1.394   1_655  A
C1247      C1248   1.412       .  A
C1247      C1254   1.445       .  S
C1248      C1249   1.403       .  A
C1249      H1252   1.085       .  S
C1249      C1250   1.403   1_455  A
C1250      C1253   1.443       .  S
C1253      N1255   1.157       .  T
C1254      N1256   1.157       .  T
C1257      C1258   1.396       .  A
C1257      C1262   1.411       .  A
C1258      H1263   1.088       .  S
C1258      C1259   1.397       .  A
C1259      C1260   1.429       .  A
C1259      C1266   1.439       .  S
C1260      C1261   1.417       .  A
C1261      H1264   1.084       .  S
C1261      C1262   1.422       .  A
C1262      C1265   1.439       .  S
C1265      N1267   1.156       .  T
C1266      N1268   1.157       .  T
C1269      C1270   1.402       .  A
C1269      C1274   1.417       .  A
C1270      H1275   1.085       .  S
C1270      C1271   1.405       .  A
C1271      C1272   1.419       .  A
C1271      C1278   1.444       .  S
C1272      C1273   1.405       .  A
C1273      H1276   1.085       .  S
C1273      C1274   1.410       .  A
C1274      C1277   1.443       .  S
C1277      N1279   1.157       .  T
C1278      N1280   1.157       .  T
C1281      C1282   1.405       .  A
C1281      C1286   1.412       .  A
C1282      H1287   1.085       .  S
C1282      C1283   1.385       .  A
C1283      C1284   1.411       .  A
C1283      C1290   1.446       .  S
C1284      C1285   1.405       .  A
C1285      H1288   1.085       .  S
C1285      C1286   1.406       .  A
C1286      C1289   1.442       .  S
C1289      N1291   1.157       .  T
C1290      N1292   1.158       .  T
C1293      C1294   1.395       .  A
C1293      C1298   1.404       .  A
C1294      H1299   1.082       .  S
C1294      C1295   1.392   1_455  A
C1295      C1296   1.419       .  A
C1295      C1302   1.442       .  S
C1296      C1297   1.414       .  A
C1297      H1300   1.084       .  S
C1297      C1298   1.407   1_655  A
C1298      C1301   1.443       .  S
C1301      N1303   1.157       .  T
C1302      N1304   1.158       .  T
C1305      C1306   1.405       .  A
C1305      C1310   1.422       .  A
C1306      H1311   1.084       .  S
C1306      C1307   1.405       .  A
C1307      C1308   1.417       .  A
C1307      C1314   1.445       .  S
C1308      C1309   1.407       .  A
C1309      H1312   1.084       .  S
C1309      C1310   1.416       .  A
C1310      C1313   1.442       .  S
C1313      N1315   1.157       .  T
C1314      N1316   1.157       .  T
C1317      C1318   1.407       .  A
C1317      C1322   1.414       .  A
C1318      H1323   1.085       .  S
C1318      C1319   1.402       .  A
C1319      C1320   1.412       .  A
C1319      C1326   1.443       .  S
C1320      C1321   1.399       .  A
C1321      H1324   1.085       .  S
C1321      C1322   1.391       .  A
C1322      C1325   1.441       .  S
C1325      N1327   1.156       .  T
C1326      N1328   1.158       .  T
C1329      C1330   1.396       .  A
C1329      C1334   1.409       .  A
C1330      H1335   1.085       .  S
C1330      C1331   1.402   1_554  A
C1331      C1332   1.426       .  A
C1331      C1338   1.442       .  S
C1332      C1333   1.405   1_556  A
C1333      H1336   1.084       .  S
C1333      C1334   1.399       .  A
C1334      C1337   1.444       .  S
C1337      N1339   1.157       .  T
C1338      N1340   1.158       .  T
C1341      C1342   1.414       .  A
C1341      C1346   1.416       .  A
C1342      H1347   1.085       .  S
C1342      C1343   1.388   1_556  A
C1343      C1344   1.405       .  A
C1343      C1350   1.449       .  S
C1344      C1345   1.413   1_554  A
C1345      H1348   1.084       .  S
C1345      C1346   1.420       .  A
C1346      C1349   1.440       .  S
C1349      N1351   1.157       .  T
C1350      N1352   1.157       .  T
C1353      C1354   1.398       .  A
C1353      C1358   1.408       .  A
C1354      H1359   1.085       .  S
C1354      C1355   1.386       .  A
C1355      C1356   1.418       .  A
C1355      C1362   1.447       .  S
C1356      C1357   1.407       .  A
C1357      H1360   1.084       .  S
C1357      C1358   1.410       .  A
C1358      C1361   1.442       .  S
C1361      N1363   1.157       .  T
C1362      N1364   1.158       .  T
C1365      C1366   1.405       .  A
C1365      C1370   1.407       .  A
C1366      H1371   1.085       .  S
C1366      C1367   1.408       .  A
C1367      C1368   1.417       .  A
C1367      C1374   1.441       .  S
C1368      C1369   1.412       .  A
C1369      H1372   1.084       .  S
C1369      C1370   1.400       .  A
C1370      C1373   1.444       .  S
C1373      N1375   1.157       .  T
C1374      N1376   1.158       .  T
C1377      C1378   1.400   1_554  A
C1377      C1382   1.414   1_545  A
C1378      H1383   1.084       .  S
C1378      C1379   1.411       .  A
C1379      C1380   1.423   1_545  A
C1379      C1386   1.441       .  S
C1380      C1381   1.407       .  A
C1381      H1384   1.081       .  S
C1381      C1382   1.400   1_556  A
C1382      C1385   1.447       .  S
C1385      N1387   1.157       .  T
C1386      N1388   1.157       .  T
C1389      C1390   1.405       .  A
C1389      C1394   1.412   1_554  A
C1390      H1395   1.085       .  S
C1390      C1391   1.406       .  A
C1391      C1392   1.408   1_554  A
C1391      C1398   1.443       .  S
C1392      C1393   1.403       .  A
C1393      H1396   1.085       .  S
C1393      C1394   1.403       .  A
C1394      C1397   1.442       .  S
C1397      N1399   1.156       .  T
C1398      N1400   1.157       .  T
C1401      C1402   1.401       .  A
C1401      C1406   1.408       .  A
C1402      H1407   1.085       .  S
C1402      C1403   1.400       .  A
C1403      C1404   1.408       .  A
C1403      C1410   1.444       .  S
C1404      C1405   1.400       .  A
C1405      H1408   1.085       .  S
C1405      C1406   1.399       .  A
C1406      C1409   1.444       .  S
C1409      N1411   1.157       .  T
C1410      N1412   1.157       .  T
C1413      C1414   1.408       .  A
C1413      C1418   1.418       .  A
C1414      H1419   1.083       .  S
C1414      C1415   1.409       .  A
C1415      C1416   1.417       .  A
C1415      C1422   1.443       .  S
C1416      C1417   1.405       .  A
C1417      H1420   1.082       .  S
C1417      C1418   1.401       .  A
C1418      C1421   1.444       .  S
C1421      N1423   1.157       .  T
C1422      N1424   1.157       .  T
C1425      C1426   1.421       .  A
C1425      C1430   1.405       .  A
C1426      H1431   1.084       .  S
C1426      C1427   1.393       .  A
C1427      C1428   1.397       .  A
C1427      C1434   1.446       .  S
C1428      C1429   1.417       .  A
C1429      H1432   1.085       .  S
C1429      C1430   1.411       .  A
C1430      C1433   1.441       .  S
C1433      N1435   1.157       .  T
C1434      N1436   1.157       .  T
C1437      C1438   1.400       .  A
C1437      C1442   1.413       .  A
C1438      H1443   1.086       .  S
C1438      C1439   1.400       .  A
C1439      C1440   1.420       .  A
C1439      C1446   1.440       .  S
C1440      C1441   1.410       .  A
C1441      H1444   1.084       .  S
C1441      C1442   1.412       .  A
C1442      C1445   1.439       .  S
C1445      N1447   1.156   1_545  T
C1446      N1448   1.156   1_655  T
C1449      C1450   1.403   1_554  A
C1449      C1454   1.410       .  A
C1450      H1455   1.086   1_556  S
C1450      C1451   1.395       .  A
C1451      C1452   1.416       .  A
C1451      C1458   1.444       .  S
C1452      C1453   1.406       .  A
C1453      H1456   1.084       .  S
C1453      C1454   1.411   1_556  A
C1454      C1457   1.441       .  S
C1457      N1459   1.157       .  T
C1458      N1460   1.157       .  T
C1461      C1462   1.415       .  A
C1461      C1466   1.414       .  A
C1462      H1467   1.078       .  S
C1462      C1463   1.382   1_556  A
C1463      C1464   1.393       .  A
C1463      C1470   1.448       .  S
C1464      C1465   1.414   1_554  A
C1465      H1468   1.084       .  S
C1465      C1466   1.418       .  A
C1466      C1469   1.441       .  S
C1469      N1471   1.157       .  T
C1470      N1472   1.157       .  T
C1473      C1474   1.409       .  A
C1473      C1478   1.417       .  A
C1474      H1479   1.084       .  S
C1474      C1475   1.414       .  A
C1475      C1476   1.416       .  A
C1475      C1482   1.443       .  S
C1476      C1477   1.405       .  A
C1477      H1480   1.084       .  S
C1477      C1478   1.403       .  A
C1478      C1481   1.445       .  S
C1481      N1483   1.157       .  T
C1482      N1484   1.157       .  T
C1485      C1486   1.402       .  A
C1485      C1490   1.412       .  A
C1486      H1491   1.085       .  S
C1486      C1487   1.401   1_455  A
C1487      C1488   1.413       .  A
C1487      C1494   1.443       .  S
C1488      C1489   1.402       .  A
C1489      H1492   1.085       .  S
C1489      C1490   1.397   1_655  A
C1490      C1493   1.444       .  S
C1493      N1495   1.157       .  T
C1494      N1496   1.157       .  T
C1497      C1498   1.408       .  A
C1497      C1502   1.415       .  A
C1498      H1503   1.084       .  S
C1498      C1499   1.413       .  A
C1499      C1500   1.411       .  A
C1499      C1506   1.442       .  S
C1500      C1501   1.402       .  A
C1501      H1504   1.086       .  S
C1501      C1502   1.397       .  A
C1502      C1505   1.445       .  S
C1505      N1507   1.158       .  T
C1506      N1508   1.157       .  T
C1509      C1510   1.402       .  A
C1509      C1514   1.417       .  A
C1510      H1515   1.085       .  S
C1510      C1511   1.408       .  A
C1511      C1512   1.415       .  A
C1511      C1518   1.442       .  S
C1512      C1513   1.392       .  A
C1513      H1516   1.086       .  S
C1513      C1514   1.390       .  A
C1514      C1517   1.437       .  S
C1517      N1519   1.154       .  T
C1518      N1520   1.157       .  T
C1521      C1522   1.410   1_565  A
C1521      C1526   1.417   1_556  A
C1522      H1527   1.080       .  S
C1522      C1523   1.400       .  A
C1523      C1524   1.409   1_556  A
C1523      C1530   1.447       .  S
C1524      C1525   1.406   1_545  A
C1525      H1528   1.085       .  S
C1525      C1526   1.413       .  A
C1526      C1529   1.439       .  S
C1529      N1531   1.156       .  T
C1530      N1532   1.157       .  T
C1533      C1534   1.405       .  A
C1533      C1538   1.416       .  A
C1534      H1539   1.084       .  S
C1534      C1535   1.410   1_554  A
C1535      C1536   1.413       .  A
C1535      C1542   1.444       .  S
C1536      C1537   1.401       .  A
C1537      H1540   1.085       .  S
C1537      C1538   1.405   1_556  A
C1538      C1541   1.444       .  S
C1541      N1543   1.157       .  T
C1542      N1544   1.157       .  T
C1545      C1546   1.408       .  A
C1545      C1550   1.423       .  A
C1546      H1551   1.084       .  S
C1546      C1547   1.408       .  A
C1547      C1548   1.412       .  A
C1547      C1554   1.444       .  S
C1548      C1549   1.399       .  A
C1549      H1552   1.085       .  S
C1549      C1550   1.406       .  A
C1550      C1553   1.439       .  S
C1553      N1555   1.156       .  T
C1554      N1556   1.157       .  T
C1557      C1558   1.404       .  A
C1557      C1562   1.407       .  A
C1558      H1563   1.084       .  S
C1558      C1559   1.393       .  A
C1559      C1560   1.408       .  A
C1559      C1566   1.445       .  S
C1560      C1561   1.402       .  A
C1561      H1564   1.085       .  S
C1561      C1562   1.391       .  A
C1562      C1565   1.445       .  S
C1565      N1567   1.157       .  T
C1566      N1568   1.157       .  T
C1569      C1570   1.408       .  A
C1569      C1574   1.415       .  A
C1570      H1575   1.084       .  S
C1570      C1571   1.401       .  A
C1571      C1572   1.405       .  A
C1571      C1578   1.444       .  S
C1572      C1573   1.397       .  A
C1573      H1576   1.086       .  S
C1573      C1574   1.392       .  A
C1574      C1577   1.444       .  S
C1577      N1579   1.158       .  T
C1578      N1580   1.157       .  T
C1581      C1582   1.404       .  A
C1581      C1586   1.414       .  A
C1582      H1587   1.085       .  S
C1582      C1583   1.402   1_455  A
C1583      C1584   1.414       .  A
C1583      C1590   1.444       .  S
C1584      C1585   1.407       .  A
C1585      H1588   1.084       .  S
C1585      C1586   1.404   1_655  A
C1586      C1589   1.444       .  S
C1589      N1591   1.157       .  T
C1590      N1592   1.157       .  T
C1593      C1594   1.406       .  A
C1593      C1598   1.409       .  A
C1594      H1599   1.083       .  S
C1594      C1595   1.401       .  A
C1595      C1596   1.409       .  A
C1595      C1602   1.444       .  S
C1596      C1597   1.407       .  A
C1597      H1600   1.085       .  S
C1597      C1598   1.403       .  A
C1598      C1601   1.444       .  S
C1601      N1603   1.157       .  T
C1602      N1604   1.157       .  T
C1605      C1606   1.410       .  A
C1605      C1610   1.415       .  A
C1606      H1611   1.085       .  S
C1606      C1607   1.405       .  A
C1607      C1608   1.409       .  A
C1607      C1614   1.443       .  S
C1608      C1609   1.405       .  A
C1609      H1612   1.086       .  S
C1609      C1610   1.401       .  A
C1610      C1613   1.443       .  S
C1613      N1615   1.158       .  T
C1614      N1616   1.157       .  T
