geometry optimzed in LAMMPS
_audit_creation_date              2020-12-01 
_audit_creation_method            'lammps2cif' 
_symmetry_space_group_name_H-M    'P1' 
_symmetry_Int_Tables_number       1 
_symmetry_cell_setting            triclinic 
loop_ 
_symmetry_equiv_pos_as_xyz 
  x,y,z 
_cell_length_a                    47.59487706 
_cell_length_b                    47.58523348712931 
_cell_length_c                    42.44549735882175 
_cell_angle_alpha                 90.4475273531074 
_cell_angle_beta                  89.07773346971176 
_cell_angle_gamma                 90.18540106701079 
loop_ 
_atom_site_label 
_atom_site_type_symbol 
_atom_site_fract_x 
_atom_site_fract_y 
_atom_site_fract_z 
_atom_site_charge 
C1          C  0.25608436  0.22141113  0.87748196     0.03300
C2          C  0.23844641  0.23958190  0.89490047    -0.12800
C3          C  0.22307864  0.26033710  0.87945277     0.00800
C4          C  0.22451765  0.26201879  0.84645233    -0.11400
C5          C  0.24130989  0.24341912  0.82866073     0.03300
C6          C  0.25732294  0.22338973  0.84444776    -0.10800
H7          H  0.23762546  0.23837620  0.92038933     0.08900
H8          H  0.21257619  0.27805066  0.83462433     0.06400
H9          H  0.27044072  0.20890768  0.83102285     0.06300
Zn10       Zn  0.51191083  0.47745656  0.97437411     1.49700
Zn11       Zn  0.45890710  0.99400353  0.92073773     1.49400
Zn12       Zn  0.49127356  0.03079214  0.97298863     1.49100
Zn13       Zn  0.03930728  0.01473705  0.91897690     1.49500
O14         O  0.49326134  0.99732597  0.94601764    -1.84000
O15         O  0.47794200  0.45214755  0.97053639    -0.74600
O16         O  0.43348163  0.02760184  0.92917000    -0.74400
O17         O  0.49189622  0.02070653  0.01891390    -0.73900
O18         O  0.45042823  0.47279843  0.93588342    -0.74600
O19         O  0.51446333  0.48772138  0.02075458    -0.74200
O20         O  0.45621387  0.05287156  0.96494263    -0.74800
O21         O  0.06195338  0.05018739  0.92686882    -0.74200
O22         O  0.46854399  0.99352985  0.87365610    -0.74900
O23         O  0.03968243  0.06952523  0.96790311    -0.74300
O24         O  0.02660809  0.01488827  0.87404671    -0.74800
O25         O  0.05149188  0.46731712  0.92257741    -0.74700
O26         O  0.03171679  0.44116203  0.95998399    -0.74500
C27         C  0.45527055  0.45287571  0.95495769     0.77300
C28         C  0.43528206  0.04920867  0.94703316     0.77800
C29         C  0.49663376  0.99804000  0.03363750     0.76800
C30         C  0.05979016  0.06948316  0.94773430     0.77100
C31         C  0.00310261  0.01115228  0.86069475     0.78300
C32         C  0.05118224  0.44534883  0.93954588     0.77300
C33         C  0.24510721  0.23568441  0.02305183     0.03300
C34         C  0.25820167  0.25770898  0.00625791    -0.12800
C35         C  0.27457624  0.27801979  0.02214015     0.00800
C36         C  0.27715384  0.27613991  0.05509844    -0.11400
C37         C  0.26397051  0.25455811  0.07198651     0.03300
C38         C  0.24815712  0.23445786  0.05588795    -0.10800
H39         H  0.25579807  0.25885464  0.98097534     0.08900
H40         H  0.29018903  0.29095014  0.06776898     0.06400
H41         H  0.23749777  0.21817646  0.06926955     0.06300
C42         C  0.01338983  0.46510079  0.37713669     0.03300
C43         C  0.01527935  0.46568080  0.34409477    -0.12800
C44         C  0.00569096  0.99156502  0.32894350     0.00800
C45         C  0.48300038  0.00469885  0.34299255    -0.11400
C46         C  0.48060000  0.00433904  0.37608189     0.03300
C47         C  0.00073837  0.98926560  0.39520180    -0.10800
H48         H  0.02888020  0.45087081  0.33177745     0.08900
H49         H  0.47092243  0.01971010  0.32977467     0.06400
H50         H  0.99913872  0.98852534  0.42067893     0.06300
Zn51       Zn  0.21875338  0.24248550  0.42483349     1.49700
Zn52       Zn  0.25064804  0.27909655  0.47701121     1.49400
Zn53       Zn  0.25784812  0.21200501  0.47534831     1.49100
Zn54       Zn  0.28613054  0.24908202  0.42187838     1.49500
O55         O  0.25320293  0.24570856  0.44974795    -1.84000
O56         O  0.19191215  0.27444195  0.43495929    -0.74600
O57         O  0.25230541  0.26817829  0.52295502    -0.74400
O58         O  0.22383113  0.18706394  0.47160389    -0.73900
O59         O  0.21451694  0.30043053  0.47011497    -0.74600
O60         O  0.19787750  0.20614887  0.43440218    -0.74200
O61         O  0.26145909  0.22239390  0.52125012    -0.74800
O62         O  0.31131187  0.21528460  0.42465906    -0.74200
O63         O  0.28320500  0.30563365  0.46831369    -0.74900
O64         O  0.29175747  0.18882975  0.46180159    -0.74300
O65         O  0.30900436  0.28381042  0.43165819    -0.74800
O66         O  0.27425711  0.25136074  0.37686937    -0.74700
O67         O  0.22798725  0.24484551  0.37807545    -0.74500
C68         C  0.19322615  0.29600122  0.45289334     0.77300
C69         C  0.25770038  0.24515316  0.53675314     0.77800
C70         C  0.20210399  0.18683924  0.45444567     0.76800
C71         C  0.31096151  0.19300490  0.44109465     0.77100
C72         C  0.30485926  0.30458149  0.45025148     0.78300
C73         C  0.25092749  0.24896705  0.36281931     0.77300
C74         C  0.46520074  0.49548669  0.51711736     0.03300
C75         C  0.98722494  0.51074765  0.49940816    -0.12800
C76         C  0.00569960  0.02712894  0.51921328     0.00800
C77         C  0.00524987  0.02470951  0.55233020    -0.11400
C78         C  0.98467718  0.00864519  0.56800496     0.03300
C79         C  0.46472215  0.49416940  0.55014683    -0.10800
H80         H  0.98536866  0.01351495  0.47627632     0.08900
H81         H  0.02088179  0.03551486  0.56618090     0.06400
H82         H  0.44908952  0.48119999  0.56194366     0.06300
C83         C  0.18096411  0.16415531  0.45894142    -0.03000
C84         C  0.18342501  0.14542187  0.48418694    -0.05600
C85         C  0.16222715  0.12591003  0.49079266    -0.20700
C86         C  0.13823433  0.12427601  0.47211402     0.25000
C87         C  0.13615641  0.14218754  0.44603458    -0.18300
C88         C  0.15731698  0.16199513  0.43957052    -0.08200
C89         C  0.11478760  0.10579159  0.48269563    -0.18500
C90         C  0.09465099  0.09546851  0.46385561    -0.23300
C91         C  0.07079683  0.07884270  0.47699609     0.27100
C92         C  0.06017091  0.05561091  0.46039790    -0.20100
C93         C  0.03872897  0.03895025  0.47366493    -0.09700
C94         C  0.02708663  0.04564124  0.50353422    -0.10300
C95         C  0.03669679  0.07004385  0.51902084    -0.03200
C96         C  0.05839604  0.08622511  0.50610683    -0.18300
H97         H  0.20130912  0.14645072  0.49961973     0.10800
H98         H  0.16428269  0.11245055  0.51108894     0.10800
H99         H  0.11769245  0.14187399  0.43148954     0.10500
H100        H  0.15477496  0.17612547  0.41995683     0.11600
H101        H  0.11424915  0.10018711  0.50747766     0.11700
H102        H  0.09611858  0.09833039  0.43853989     0.13600
H103        H  0.06913800  0.04978738  0.43767034     0.10100
H104        H  0.03196038  0.02040558  0.46092426     0.12200
H105        H  0.02748690  0.07678046  0.54128293     0.08800
H106        H  0.06534840  0.10470925  0.51887301     0.11600
C107        C  0.44406563  0.47918851  0.49937445    -0.03000
C108        C  0.41550549  0.48182343  0.50746044    -0.05600
C109        C  0.39568746  0.46350913  0.49471829    -0.20700
C110        C  0.40399907  0.44180902  0.47406605     0.25000
C111        C  0.43245754  0.44008174  0.46454453    -0.18300
C112        C  0.45232661  0.45876410  0.47704702    -0.08200
C113        C  0.38234424  0.42097412  0.46446617    -0.18500
C114        C  0.38798978  0.39390624  0.45726011    -0.23300
C115        C  0.36568661  0.37204410  0.45401685     0.27100
C116        C  0.37166198  0.34726889  0.43704886    -0.20100
C117        C  0.35180783  0.32552463  0.43534707    -0.09700
C118        C  0.32563873  0.32791676  0.45102612    -0.10300
C119        C  0.31967005  0.35270010  0.46800782    -0.03200
C120        C  0.33941117  0.37445860  0.46954964    -0.18300
H121        H  0.40866325  0.49754332  0.52449271     0.10800
H122        H  0.37391115  0.46550610  0.50219279     0.10800
H123        H  0.43950671  0.42415130  0.44793035     0.10500
H124        H  0.47427195  0.45644924  0.47042660     0.11600
H125        H  0.36063193  0.42774788  0.46622916     0.11700
H126        H  0.40965291  0.38702649  0.45504552     0.13600
H127        H  0.39184010  0.34466010  0.42523037     0.10100
H128        H  0.35715375  0.30664992  0.42217919     0.12200
H129        H  0.29979738  0.35520126  0.48047787     0.08800
H130        H  0.33424583  0.39265729  0.48387626     0.11600
C131        C  0.03099328  0.44499748  0.39442642    -0.03000
C132        C  0.01889251  0.42512796  0.41486280    -0.05600
C133        C  0.03555846  0.40418095  0.42815760    -0.20700
C134        C  0.06463438  0.40324530  0.42186588     0.25000
C135        C  0.07672661  0.42371434  0.40207543    -0.18300
C136        C  0.06006146  0.44425957  0.38845166    -0.08200
C137        C  0.08169070  0.37953024  0.43373498    -0.18500
C138        C  0.10913745  0.38246376  0.44040881    -0.23300
C139        C  0.12827335  0.35870351  0.44726899     0.27100
C140        C  0.15333166  0.36441441  0.46311591    -0.20100
C141        C  0.17384761  0.34368303  0.46617013    -0.09700
C142        C  0.17000725  0.31681244  0.45290884    -0.10300
C143        C  0.14448308  0.31074883  0.43796230    -0.03200
C144        C  0.12377924  0.33143568  0.43524190    -0.18300
H145        H  0.99644791  0.42513658  0.41946644     0.10800
H146        H  0.02570329  0.38846667  0.44303510     0.10800
H147        H  0.09888166  0.42320125  0.39596534     0.10500
H148        H  0.06979619  0.45931500  0.37262721     0.11600
H149        H  0.07144710  0.35927915  0.43666504     0.11700
H150        H  0.11834338  0.40338463  0.44031241     0.13600
H151        H  0.15740179  0.38526693  0.47241660     0.10100
H152        H  0.19322844  0.34909672  0.47781990     0.12200
H153        H  0.14082577  0.29023930  0.42756134     0.08800
H154        H  0.10499414  0.32638386  0.42230995     0.11600
C155        C  0.33301662  0.17145451  0.43530681    -0.03000
C156        C  0.35342187  0.17558151  0.41149860    -0.05600
C157        C  0.37338671  0.15493826  0.40460115    -0.20700
C158        C  0.37375922  0.12965818  0.42140426     0.25000
C159        C  0.35358626  0.12551452  0.44558295    -0.18300
C160        C  0.33341789  0.14623863  0.45243598    -0.08200
C161        C  0.39495145  0.10819199  0.41168737    -0.18500
C162        C  0.40260066  0.08580407  0.42888118    -0.23300
C163        C  0.42433443  0.06549393  0.41738346     0.27100
C164        C  0.42337140  0.03742655  0.42749791    -0.20100
C165        C  0.44231092  0.01755201  0.41503589    -0.09700
C166        C  0.46259324  0.02549075  0.39235952    -0.10300
C167        C  0.46459506  0.05383049  0.38371011    -0.03200
C168        C  0.44589033  0.07363598  0.39622310    -0.18300
H169        H  0.35378034  0.19466937  0.39776453     0.10800
H170        H  0.38858268  0.15872669  0.38583835     0.10800
H171        H  0.35276986  0.10616835  0.45874696     0.10500
H172        H  0.31790170  0.14233349  0.47081782     0.11600
H173        H  0.40484929  0.11130893  0.38878819     0.11700
H174        H  0.39238779  0.08166040  0.45137449     0.13600
H175        H  0.40733953  0.03066523  0.44420295     0.10100
H176        H  0.44036327  0.99581556  0.42208276     0.12200
H177        H  0.48052762  0.06061509  0.36688871     0.08800
H178        H  0.44841182  0.09527871  0.38910129     0.11600
C179        C  0.25071877  0.25114608  0.32804356    -0.03000
C180        C  0.22548278  0.25526868  0.31199867    -0.05600
C181        C  0.22561806  0.25791329  0.27918545    -0.20700
C182        C  0.25084704  0.25592228  0.26174777     0.25000
C183        C  0.27610746  0.25190557  0.27778587    -0.18300
C184        C  0.27603087  0.24962007  0.31056918    -0.08200
C185        C  0.25034330  0.25909917  0.22702978    -0.18500
C186        C  0.26886257  0.24620349  0.20750353    -0.23300
C187        C  0.26801610  0.24904533  0.17278662     0.27100
C188        C  0.27633255  0.22626801  0.15367273    -0.20100
C189        C  0.27516941  0.22809567  0.12086664    -0.09700
C190        C  0.26637312  0.25302381  0.10661853    -0.10300
C191        C  0.25900160  0.27617410  0.12565553    -0.03200
C192        C  0.25964374  0.27417473  0.15848536    -0.18300
H193        H  0.20568699  0.25679586  0.32481955     0.10800
H194        H  0.20593492  0.26129438  0.26734624     0.10800
H195        H  0.29602096  0.25109166  0.26515481     0.10500
H196        H  0.29585839  0.24662731  0.32223302     0.11600
H197        H  0.23331132  0.27120118  0.21721225     0.11700
H198        H  0.28404933  0.23169687  0.21703649     0.13600
H199        H  0.28317837  0.20682973  0.16417863     0.10100
H200        H  0.28116002  0.21007186  0.10656154     0.12200
H201        H  0.25219462  0.29559858  0.11509937     0.08800
H202        H  0.25385429  0.29235610  0.17259833     0.11600
C203        C  0.29025124  0.30050327  0.00483894    -0.03000
C204        C  0.30331907  0.29508666  0.97541006    -0.05600
C205        C  0.32150165  0.31496829  0.96171220    -0.20700
C206        C  0.32735039  0.34031668  0.97744328     0.25000
C207        C  0.31288618  0.34652532  0.00571641    -0.18300
C208        C  0.29438812  0.32699026  0.01907846    -0.08200
C209        C  0.34936220  0.35964304  0.96497379    -0.18500
C210        C  0.36788815  0.37192952  0.98444359    -0.23300
C211        C  0.39096434  0.39095510  0.97407692     0.27100
C212        C  0.41520290  0.39248588  0.99236695    -0.20100
C213        C  0.43646631  0.41183934  0.98535039    -0.09700
C214        C  0.43377816  0.43059630  0.96016193    -0.10300
C215        C  0.40967650  0.42877093  0.94142164    -0.03200
C216        C  0.38851042  0.40902363  0.94820787    -0.18300
H217        H  0.30067466  0.27498213  0.96371175     0.10800
H218        H  0.33215840  0.30991749  0.93966120     0.10800
H219        H  0.31624335  0.36636158  0.01778692     0.10500
H220        H  0.28387309  0.33240613  0.04109337     0.11600
H221        H  0.35166841  0.36206112  0.93964979     0.11700
H222        H  0.36691574  0.36677620  0.00934504     0.13600
H223        H  0.41752529  0.37887860  0.01249583     0.10100
H224        H  0.45465075  0.41266987  0.00035606     0.12200
H225        H  0.40691554  0.44296086  0.92190664     0.08800
H226        H  0.36981810  0.40870338  0.93400300     0.11600
C227        C  0.08140186  0.09192298  0.94922112    -0.03000
C228        C  0.09814129  0.09866361  0.92270599    -0.05600
C229        C  0.11927387  0.11916655  0.92480885    -0.20700
C230        C  0.12456547  0.13263428  0.95364075     0.25000
C231        C  0.10746833  0.12628339  0.97996665    -0.18300
C232        C  0.08600885  0.10630527  0.97771578    -0.08200
C233        C  0.14801414  0.15315563  0.95616339    -0.18500
C234        C  0.16462978  0.15350373  0.98150181    -0.23300
C235        C  0.18776351  0.17391270  0.98679169     0.27100
C236        C  0.20917535  0.16623447  0.00725736    -0.20100
C237        C  0.22899471  0.18590550  0.01711683    -0.09700
C238        C  0.22757215  0.21398957  0.00726278    -0.10300
C239        C  0.20721007  0.22138877  0.98518023    -0.03200
C240        C  0.18741909  0.20148840  0.97498086    -0.18300
H241        H  0.09490115  0.08807108  0.90037137     0.10800
H242        H  0.13201931  0.12393820  0.90416968     0.10800
H243        H  0.11066146  0.13683187  0.00233623     0.10500
H244        H  0.07344355  0.10162931  0.99852360     0.11600
H245        H  0.15243709  0.16699390  0.93648025     0.11700
H246        H  0.16140472  0.13751768  0.99937222     0.13600
H247        H  0.21001519  0.14511048  0.01653404     0.10100
H248        H  0.24480650  0.17939757  0.03358960     0.12200
H249        H  0.20550706  0.24290636  0.97734143     0.08800
H250        H  0.17093908  0.20817809  0.95949918     0.11600
C251        C  0.98400538  0.00706804  0.60301214    -0.03000
C252        C  0.45525800  0.00477953  0.61606678    -0.05600
C253        C  0.45349563  0.00213846  0.64883292    -0.20700
C254        C  0.47781581  0.99876095  0.66668346     0.25000
C255        C  0.00406679  0.49724989  0.65093318    -0.18300
C256        C  0.00582606  0.49999996  0.61817077    -0.08200
C257        C  0.47480150  0.99605999  0.70153909    -0.18500
C258        C  0.99581846  0.50146490  0.72174381    -0.23300
C259        C  0.99352809  0.49967159  0.75679975     0.27100
C260        C  0.01769670  0.50546948  0.77425667    -0.20100
C261        C  0.01700954  0.50461488  0.80712437    -0.09700
C262        C  0.00229192  0.01099238  0.82571376    -0.10300
C263        C  0.46770922  0.99228528  0.80620387    -0.03200
C264        C  0.46840042  0.99307612  0.77318693    -0.18300
H265        H  0.43613299  0.00783497  0.60308450     0.10800
H266        H  0.43301428  0.00302224  0.66033375     0.10800
H267        H  0.02324658  0.49352755  0.66349837     0.10500
H268        H  0.02624466  0.49855202  0.60663019     0.11600
H269        H  0.45418381  0.99029183  0.71053726     0.11700
H270        H  0.01590338  0.50849775  0.71222341     0.13600
H271        H  0.03732354  0.51079394  0.76240051     0.10100
H272        H  0.03612915  0.50933036  0.81962442     0.12200
H273        H  0.44808938  0.98722360  0.81817846     0.08800
H274        H  0.44911882  0.98863655  0.76106244     0.11600
C275        C  0.00727990  0.99192877  0.29389270    -0.03000
C276        C  0.50707535  0.46676103  0.27664831    -0.05600
C277        C  0.50782109  0.46698257  0.24370987    -0.20700
C278        C  0.50898742  0.49240483  0.22710761     0.25000
C279        C  0.00912013  0.01768888  0.24443056    -0.18300
C280        C  0.00834131  0.01744184  0.27743694    -0.08200
C281        C  0.50906248  0.49108393  0.19190259    -0.18500
C282        C  0.01331448  0.01317360  0.17275453    -0.23300
C283        C  0.01277135  0.01152822  0.13763900     0.27100
C284        C  0.00917649  0.03648568  0.12076359    -0.20100
C285        C  0.00863958  0.03621677  0.08783769    -0.09700
C286        C  0.49783966  0.99884808  0.06856288    -0.10300
C287        C  0.51607559  0.48598648  0.08769509    -0.03200
C288        C  0.51664153  0.48628174  0.12069144    -0.18300
H289        H  0.50575040  0.44676438  0.28859187     0.10800
H290        H  0.50735183  0.44710038  0.23112099     0.10800
H291        H  0.00949899  0.03787144  0.23300335     0.10500
H292        H  0.00866615  0.03727169  0.29012911     0.11600
H293        H  0.50493011  0.47065938  0.18144452     0.11700
H294        H  0.01694567  0.03379286  0.18288128     0.13600
H295        H  0.00656757  0.05632870  0.13313469     0.10100
H296        H  0.00564349  0.05589812  0.07571562     0.12200
H297        H  0.51895404  0.46617280  0.07535679     0.08800
H298        H  0.52048321  0.46668509  0.13254972     0.11600
C299        C  0.25948211  0.24469484  0.57153951    -0.03000
C300        C  0.27317742  0.22253537  0.58662176    -0.05600
C301        C  0.27445834  0.22176332  0.61948143    -0.20700
C302        C  0.26158523  0.24275777  0.63800325     0.25000
C303        C  0.24824008  0.26520701  0.62293369    -0.18300
C304        C  0.24728778  0.26618575  0.59002777    -0.08200
C305        C  0.26289828  0.24078808  0.67286846    -0.18500
C306        C  0.24291535  0.25145391  0.69231114    -0.23300
C307        C  0.24328740  0.24871121  0.72718312     0.27100
C308        C  0.21785694  0.25120788  0.74414609    -0.20100
C309        C  0.21721147  0.24929975  0.77698297    -0.09700
C310        C  0.24207179  0.24503772  0.79369430    -0.10300
C311        C  0.26759504  0.24265769  0.77677553    -0.03200
C312        C  0.26824905  0.24458044  0.74388303    -0.18300
H313        H  0.28302086  0.20581815  0.57300656     0.10800
H314        H  0.28514171  0.20443628  0.63049848     0.10800
H315        H  0.23883051  0.28221630  0.63642670     0.10500
H316        H  0.23670710  0.28359662  0.57906886     0.11600
H317        H  0.27985542  0.22851555  0.68251388     0.11700
H318        H  0.22460279  0.26130625  0.68226368     0.13600
H319        H  0.19834710  0.25449606  0.73191295     0.10100
H320        H  0.19717357  0.25092101  0.78931358     0.12200
H321        H  0.28715813  0.23989907  0.78904604     0.08800
H322        H  0.28839990  0.24344713  0.73180197     0.11600
C323        C  0.27415093  0.20090446  0.89344431    -0.03000
C324        C  0.26270389  0.18107333  0.91439243    -0.05600
C325        C  0.27979169  0.16014805  0.92696187    -0.20700
C326        C  0.30864697  0.15925221  0.91947522     0.25000
C327        C  0.32012699  0.17973841  0.89927453    -0.18300
C328        C  0.30302183  0.20024835  0.88633613    -0.08200
C329        C  0.32598126  0.13548391  0.93049301    -0.18500
C330        C  0.35370853  0.13812970  0.93563876    -0.23300
C331        C  0.37258178  0.11402906  0.94153954     0.27100
C332        C  0.39782449  0.11893443  0.95729058    -0.20100
C333        C  0.41771101  0.09758453  0.96003193    -0.09700
C334        C  0.41302702  0.07094208  0.94649038    -0.10300
C335        C  0.38747748  0.06582796  0.93126497    -0.03200
C336        C  0.36740147  0.08711617  0.92889139    -0.18300
H337        H  0.24043464  0.18117697  0.92009027     0.10800
H338        H  0.27043312  0.14444488  0.94225114     0.10800
H339        H  0.34209441  0.17927453  0.89231899     0.10500
H340        H  0.31226338  0.21540392  0.87027446     0.11600
H341        H  0.31568745  0.11532867  0.93402398     0.11700
H342        H  0.36322945  0.15890791  0.93511218     0.13600
H343        H  0.40241748  0.13954470  0.96697177     0.10100
H344        H  0.43718924  0.10227024  0.97186399     0.12200
H345        H  0.38323558  0.04554179  0.92060482     0.08800
H346        H  0.34847250  0.08278006  0.91590506     0.11600
C347        C  0.20585627  0.28097195  0.89726718    -0.03000
C348        C  0.18406326  0.27220939  0.91759965    -0.05600
C349        C  0.16530592  0.29191459  0.93064785    -0.20700
C350        C  0.16804848  0.32057178  0.92339901     0.25000
C351        C  0.19125129  0.32939673  0.90498880    -0.18300
C352        C  0.20977465  0.30975687  0.89183216    -0.08200
C353        C  0.14590841  0.34066129  0.93405175    -0.18500
C354        C  0.13918903  0.36322171  0.91667937    -0.23300
C355        C  0.11656077  0.38384176  0.92429349     0.27100
C356        C  0.11387726  0.40698411  0.90426828    -0.20100
C357        C  0.09288643  0.42693180  0.90947309    -0.09700
C358        C  0.07378618  0.42424974  0.93484603    -0.10300
C359        C  0.07634336  0.40112511  0.95503785    -0.03200
C360        C  0.09754724  0.38112366  0.94990034    -0.18300
H361        H  0.18073859  0.25005762  0.92207441     0.10800
H362        H  0.14788779  0.28464088  0.94517300     0.10800
H363        H  0.19488087  0.35142426  0.90017055     0.10500
H364        H  0.22683837  0.31696834  0.87672432     0.11600
H365        H  0.13407115  0.33562784  0.95528304     0.11700
H366        H  0.15059927  0.36663046  0.89467860     0.13600
H367        H  0.12809979  0.40966819  0.88431296     0.10100
H368        H  0.09149739  0.44436742  0.89333049     0.12200
H369        H  0.06192525  0.39845024  0.97479030     0.08800
H370        H  0.09860687  0.36362117  0.96588300     0.11600
C371        C  0.27230557  0.73622035  0.87920308     0.03300
C372        C  0.25509939  0.75524102  0.89607435    -0.12800
C373        C  0.23925682  0.77525794  0.88000615     0.00800
C374        C  0.23974938  0.77527042  0.84690439    -0.11400
C375        C  0.25611043  0.75589599  0.82966729     0.03300
C376        C  0.27266735  0.73671481  0.84603938    -0.10800
H377        H  0.25479749  0.75514884  0.92157506     0.08900
H378        H  0.22731300  0.79054640  0.83449720     0.06400
H379        H  0.28529850  0.72157517  0.83295805     0.06300
Zn380      Zn  0.49735792  0.96407727  0.97264427     1.49700
Zn381      Zn  0.47230747  0.50801852  0.92414164     1.49400
Zn382      Zn  0.50612171  0.54429642  0.97560416     1.49100
Zn383      Zn  0.02612904  0.50071746  0.91810750     1.49500
O384        O  0.50731175  0.51101949  0.94823862    -1.84000
O385        O  0.46305208  0.93927884  0.96883664    -0.74600
O386        O  0.44706286  0.54147997  0.93356159    -0.74400
O387        O  0.50678348  0.53369435  0.02150432    -0.73900
O388        O  0.43665459  0.95869341  0.93222399    -0.74600
O389        O  0.50030698  0.97485931  0.01888284    -0.74200
O390        O  0.47117465  0.56694901  0.96801578    -0.74800
O391        O  0.04870045  0.53609941  0.92650896    -0.74200
O392        O  0.48056711  0.50747184  0.87685663    -0.74900
O393        O  0.02436761  0.55650750  0.96531945    -0.74300
O394        O  0.01459697  0.50125503  0.87293999    -0.74800
O395        O  0.06528306  0.98168644  0.92312760    -0.74700
O396        O  0.04676343  0.95546038  0.96126618    -0.74500
C397        C  0.44090178  0.93940662  0.95231811     0.77300
C398        C  0.44961020  0.56323927  0.95104046     0.77800
C399        C  0.51106259  0.51074288  0.03589205     0.76800
C400        C  0.04530561  0.55613266  0.94627333     0.77100
C401        C  0.99159435  0.49750177  0.85858773     0.78300
C402        C  0.06581722  0.95991750  0.94040846     0.77300
C403        C  0.23035880  0.72197906  0.02294511     0.03300
C404        C  0.24472347  0.74282283  0.00551862    -0.12800
C405        C  0.26188840  0.76273785  0.02089862     0.00800
C406        C  0.26429621  0.76151876  0.05391288    -0.11400
C407        C  0.24999233  0.74104585  0.07148182     0.03300
C408        C  0.23320243  0.72140380  0.05586498    -0.10800
H409        H  0.24252001  0.74352165  0.98018385     0.08900
H410        H  0.27794180  0.77611818  0.06607822     0.06400
H411        H  0.22157063  0.70607701  0.06966096     0.06300
C412        C  0.01902173  0.97081466  0.37899992     0.03300
C413        C  0.02132636  0.97209118  0.34599440    -0.12800
C414        C  0.99993098  0.48519951  0.32682803     0.00800
C415        C  0.48814160  0.51042718  0.34556195    -0.11400
C416        C  0.48562116  0.50958993  0.37863897     0.03300
C417        C  0.99551778  0.48410569  0.39310927    -0.10800
H418        H  0.03538500  0.95779231  0.33356779     0.08900
H419        H  0.47574358  0.52532629  0.33257674     0.06400
H420        H  0.99413687  0.48388249  0.41861790     0.06300
Zn421      Zn  0.21882374  0.74342313  0.42717122     1.49700
Zn422      Zn  0.25338485  0.78066964  0.47683488     1.49400
Zn423      Zn  0.25908973  0.71347512  0.47679575     1.49100
Zn424      Zn  0.28600619  0.74915800  0.42059705     1.49500
O425        O  0.25421588  0.74670490  0.45034895    -1.84000
O426        O  0.19307051  0.77611721  0.43758602    -0.74600
O427        O  0.25674817  0.77092115  0.52308067    -0.74400
O428        O  0.22491851  0.68836062  0.47471528    -0.73900
O429        O  0.21742649  0.80243970  0.47092850    -0.74600
O430        O  0.19790479  0.70747747  0.43850899    -0.74200
O431        O  0.26390344  0.72479249  0.52232415    -0.74800
O432        O  0.31128279  0.71567939  0.42428185    -0.74200
O433        O  0.28578673  0.80653763  0.46549619    -0.74900
O434        O  0.29277451  0.69015964  0.46293226    -0.74300
O435        O  0.30943156  0.78420405  0.42745577    -0.74800
O436        O  0.27251696  0.74946631  0.37596705    -0.74700
O437        O  0.22614967  0.74451260  0.37992138    -0.74500
C438        C  0.19548717  0.79807590  0.45473617     0.77300
C439        C  0.26163273  0.74799575  0.53734111     0.77800
C440        C  0.20265451  0.68818478  0.45842185     0.76800
C441        C  0.31150181  0.69394142  0.44158324     0.77100
C442        C  0.30637387  0.80522575  0.44594588     0.78300
C443        C  0.24853035  0.74731796  0.36329042     0.77300
C444        C  0.46591535  0.99439942  0.51332414     0.03300
C445        C  0.98564683  0.01198889  0.50171039    -0.12800
C446        C  0.00659059  0.52548210  0.51825554     0.00800
C447        C  0.00464396  0.52271579  0.55128981    -0.11400
C448        C  0.98336647  0.50649256  0.56554413     0.03300
C449        C  0.46400637  0.99260824  0.54626098    -0.10800
H450        H  0.98810871  0.51256508  0.47399071     0.08900
H451        H  0.01972273  0.53326449  0.56613016     0.06400
H452        H  0.44786287  0.97949440  0.55693267     0.06300
C453        C  0.18162018  0.66546290  0.46350386    -0.03000
C454        C  0.18407989  0.64719704  0.48918781    -0.05600
C455        C  0.16316510  0.62733499  0.49580143    -0.20700
C456        C  0.13951276  0.62486340  0.47666658     0.25000
C457        C  0.13741707  0.64241366  0.45028693    -0.18300
C458        C  0.15823558  0.66257584  0.44384851    -0.08200
C459        C  0.11633408  0.60584847  0.48687468    -0.18500
C460        C  0.09723544  0.59446711  0.46741542    -0.23300
C461        C  0.07337069  0.57735946  0.47974644     0.27100
C462        C  0.06392040  0.55374990  0.46290072    -0.20100
C463        C  0.04205172  0.53697819  0.47503877    -0.09700
C464        C  0.02881275  0.54388884  0.50399787    -0.10300
C465        C  0.03748428  0.56844199  0.51987746    -0.03200
C466        C  0.05957552  0.58479934  0.50806713    -0.18300
H467        H  0.20176444  0.64881256  0.50485239     0.10800
H468        H  0.16520785  0.61418721  0.51635647     0.10800
H469        H  0.11918815  0.64148489  0.43539905     0.10500
H470        H  0.15570398  0.67630752  0.42388116     0.11600
H471        H  0.11513177  0.60075306  0.51177898     0.11700
H472        H  0.09956633  0.59689391  0.44209886     0.13600
H473        H  0.07401112  0.54783020  0.44078949     0.10100
H474        H  0.03606251  0.51825083  0.46212002     0.12200
H475        H  0.02714627  0.57518514  0.54152582     0.08800
H476        H  0.06565815  0.60350868  0.52098356     0.11600
C477        C  0.44554185  0.97846706  0.49418212    -0.03000
C478        C  0.41667874  0.98195023  0.49996338    -0.05600
C479        C  0.39724635  0.96401115  0.48589570    -0.20700
C480        C  0.40622996  0.94183743  0.46623773     0.25000
C481        C  0.43512783  0.93923909  0.45905157    -0.18300
C482        C  0.45462976  0.95753168  0.47289677    -0.08200
C483        C  0.38471461  0.92127915  0.45556617    -0.18500
C484        C  0.39014318  0.89404654  0.44895226    -0.23300
C485        C  0.36754066  0.87246962  0.44600728     0.27100
C486        C  0.37298705  0.84742097  0.42930785    -0.20100
C487        C  0.35293356  0.82577344  0.42856247    -0.09700
C488        C  0.32716784  0.82855975  0.44501408    -0.10300
C489        C  0.32167849  0.85370882  0.46149221    -0.03200
C490        C  0.34156301  0.87534660  0.46203995    -0.18300
H491        H  0.40924488  0.99803088  0.51624341     0.10800
H492        H  0.37514566  0.96664785  0.49164013     0.10800
H493        H  0.44278110  0.92290308  0.44330817     0.10500
H494        H  0.47684845  0.95452630  0.46817416     0.11600
H495        H  0.36305084  0.92832655  0.45633698     0.11700
H496        H  0.41170653  0.88675890  0.44751997     0.13600
H497        H  0.39294439  0.84447570  0.41711230     0.10100
H498        H  0.35788021  0.80661222  0.41572710     0.12200
H499        H  0.30211168  0.85654974  0.47447754     0.08800
H500        H  0.33683066  0.89378793  0.47616889     0.11600
C501        C  0.03637772  0.95038680  0.39610740    -0.03000
C502        C  0.02391333  0.93012025  0.41576239    -0.05600
C503        C  0.04032874  0.90895041  0.42895978    -0.20700
C504        C  0.06951113  0.90816822  0.42339870     0.25000
C505        C  0.08197166  0.92902823  0.40440523    -0.18300
C506        C  0.06554705  0.94981317  0.39084013    -0.08200
C507        C  0.08623010  0.88418516  0.43517640    -0.18500
C508        C  0.11368826  0.88661270  0.44201241    -0.23300
C509        C  0.13228127  0.86244170  0.44894087     0.27100
C510        C  0.15755056  0.86761003  0.46459712    -0.20100
C511        C  0.17750071  0.84635025  0.46777562    -0.09700
C512        C  0.17283220  0.81947115  0.45487797    -0.10300
C513        C  0.14708686  0.81397489  0.44016901    -0.03200
C514        C  0.12698953  0.83519842  0.43726581    -0.18300
H515        H  0.00138895  0.93004076  0.41986456     0.10800
H516        H  0.03019708  0.89294586  0.44320240     0.10800
H517        H  0.10423509  0.92866734  0.39883498     0.10500
H518        H  0.07555159  0.96519428  0.37563859     0.11600
H519        H  0.07563969  0.86410513  0.43799725     0.11700
H520        H  0.12329595  0.90734806  0.44205868     0.13600
H521        H  0.16222960  0.88842222  0.47363716     0.10100
H522        H  0.19708801  0.85133731  0.47922808     0.12200
H523        H  0.14280938  0.79349264  0.43001122     0.08800
H524        H  0.10805028  0.83051716  0.42446019     0.11600
C525        C  0.33380499  0.67264079  0.43614524    -0.03000
C526        C  0.35473472  0.67730184  0.41305335    -0.05600
C527        C  0.37509091  0.65700087  0.40650806    -0.20700
C528        C  0.37533195  0.63156885  0.42298529     0.25000
C529        C  0.35464625  0.62685287  0.44644775    -0.18300
C530        C  0.33405943  0.64724392  0.45294961    -0.08200
C531        C  0.39686510  0.61045452  0.41353478    -0.18500
C532        C  0.40567892  0.58904786  0.43151559    -0.23300
C533        C  0.42810305  0.56938140  0.42033323     0.27100
C534        C  0.42855392  0.54158848  0.43133391    -0.20100
C535        C  0.44796187  0.52218152  0.41880469    -0.09700
C536        C  0.46731036  0.53036123  0.39520169    -0.10300
C537        C  0.46808162  0.55859530  0.38592136    -0.03200
C538        C  0.44890546  0.57789739  0.39844592    -0.18300
H539        H  0.35525595  0.69657538  0.39964691     0.10800
H540        H  0.39071532  0.66117610  0.38830140     0.10800
H541        H  0.35379025  0.60728174  0.45921111     0.10500
H542        H  0.31811562  0.64293910  0.47074657     0.11600
H543        H  0.40620736  0.61318311  0.39028464     0.11700
H544        H  0.39603683  0.58537299  0.45443828     0.13600
H545        H  0.41319949  0.53461035  0.44871018     0.10100
H546        H  0.44704441  0.50057097  0.42653082     0.12200
H547        H  0.48337615  0.56568991  0.36854321     0.08800
H548        H  0.45044522  0.59945847  0.39070700     0.11600
C549        C  0.24684206  0.74826923  0.32850587    -0.03000
C550        C  0.22162830  0.75538623  0.31379918    -0.05600
C551        C  0.22045630  0.75705383  0.28093241    -0.20700
C552        C  0.24422358  0.75097892  0.26211626     0.25000
C553        C  0.26946275  0.74387484  0.27682293    -0.18300
C554        C  0.27076593  0.74266541  0.30966102    -0.08200
C555        C  0.24235166  0.75310772  0.22732869    -0.18500
C556        C  0.25756007  0.73681923  0.20739975    -0.23300
C557        C  0.25536351  0.73845618  0.17261587     0.27100
C558        C  0.25992505  0.71411391  0.15439387    -0.20100
C559        C  0.25807738  0.71491592  0.12156375    -0.09700
C560        C  0.25228944  0.74026773  0.10626649    -0.10300
C561        C  0.24833400  0.76478522  0.12441729    -0.03200
C562        C  0.24971375  0.76389050  0.15730057    -0.18300
H563        H  0.20294075  0.76010585  0.32771169     0.10800
H564        H  0.20086048  0.76285712  0.27014189     0.10800
H565        H  0.28837244  0.73981415  0.26306458     0.10500
H566        H  0.29053488  0.73725824  0.32031396     0.11600
H567        H  0.22684339  0.76735781  0.21795966     0.11700
H568        H  0.27088468  0.72052784  0.21683595     0.13600
H569        H  0.26459405  0.69434725  0.16563764     0.10100
H570        H  0.26145214  0.69578239  0.10805306     0.12200
H571        H  0.24381153  0.78456779  0.11314731     0.08800
H572        H  0.24680809  0.78317975  0.17061604     0.11600
C573        C  0.27799152  0.78459889  0.00312834    -0.03000
C574        C  0.29184043  0.77829076  0.97437709    -0.05600
C575        C  0.30991053  0.79803454  0.96015931    -0.20700
C576        C  0.31491017  0.82412054  0.97479317     0.25000
C577        C  0.29976520  0.83101192  0.00243905    -0.18300
C578        C  0.28143384  0.81159680  0.01628515    -0.08200
C579        C  0.33675882  0.84356842  0.96199912    -0.18500
C580        C  0.35420250  0.85740824  0.98149109    -0.23300
C581        C  0.37711044  0.87672699  0.97122027     0.27100
C582        C  0.40041604  0.87979559  0.99075057    -0.20100
C583        C  0.42141692  0.89945845  0.98390848    -0.09700
C584        C  0.41943375  0.91706128  0.95759852    -0.10300
C585        C  0.39623713  0.91379203  0.93766776    -0.03200
C586        C  0.37532243  0.89366589  0.94430382    -0.18300
H587        H  0.28983816  0.75766148  0.96371075     0.10800
H588        H  0.32110090  0.79237173  0.93862360     0.10800
H589        H  0.30242221  0.85134216  0.01366661     0.10500
H590        H  0.27041117  0.81754115  0.03782191     0.11600
H591        H  0.33982160  0.84492244  0.93665501     0.11700
H592        H  0.35251913  0.85333553  0.00661408     0.13600
H593        H  0.40221712  0.86712247  0.01170940     0.10100
H594        H  0.43886186  0.90139365  0.99986644     0.12200
H595        H  0.39403478  0.92706271  0.91725756     0.08800
H596        H  0.35732522  0.89214675  0.92909511     0.11600
C597        C  0.06624856  0.57922683  0.94767198    -0.03000
C598        C  0.08550016  0.58381199  0.92271399    -0.05600
C599        C  0.10591006  0.60501968  0.92488867    -0.20700
C600        C  0.10788426  0.62144862  0.95234755     0.25000
C601        C  0.08820936  0.61737112  0.97693237    -0.18300
C602        C  0.06751413  0.59662243  0.97453487    -0.08200
C603        C  0.13111830  0.64206314  0.95570969    -0.18500
C604        C  0.14573238  0.64349413  0.98251952    -0.23300
C605        C  0.16965785  0.66285721  0.98798899     0.27100
C606        C  0.19035568  0.65444943  0.00898639    -0.20100
C607        C  0.21122141  0.67315329  0.01846610    -0.09700
C608        C  0.21154350  0.70103049  0.00775117    -0.10300
C609        C  0.19172997  0.70912186  0.98532156    -0.03200
C610        C  0.17091650  0.69014505  0.97545514    -0.18300
H611        H  0.08487703  0.57091618  0.90159364     0.10800
H612        H  0.12077130  0.60794795  0.90560751     0.10800
H613        H  0.08897236  0.63014527  0.99814116     0.10500
H614        H  0.05293327  0.59374706  0.99409446     0.11600
H615        H  0.13754176  0.65447666  0.93547312     0.11700
H616        H  0.14066015  0.62871997  0.00119430     0.13600
H617        H  0.18992417  0.63349792  0.01880024     0.10100
H618        H  0.22653573  0.66609818  0.03524614     0.12200
H619        H  0.19133190  0.73051648  0.97682177     0.08800
H620        H  0.15498409  0.69732088  0.95951027     0.11600
C621        C  0.98148990  0.50383324  0.60041699    -0.03000
C622        C  0.45843221  0.50852890  0.61981017    -0.05600
C623        C  0.45780989  0.50749630  0.65273676    -0.20700
C624        C  0.48274722  0.50499567  0.66971150     0.25000
C625        C  0.00836427  0.00304199  0.65284161    -0.18300
C626        C  0.00896644  0.00411313  0.61990137    -0.08200
C627        C  0.48092288  0.50415566  0.70480005    -0.18500
C628        C  0.00259535  0.01068692  0.72367477    -0.23300
C629        C  0.00147113  0.01044539  0.75887174     0.27100
C630        C  0.02636247  0.01630908  0.77501705    -0.20100
C631        C  0.02681953  0.01654913  0.80791281    -0.09700
C632        C  0.99201985  0.49799723  0.82359847    -0.10300
C633        C  0.47736551  0.50485060  0.80972941    -0.03200
C634        C  0.47691699  0.50445983  0.77671333    -0.18300
H635        H  0.43886586  0.51106622  0.60751072     0.10800
H636        H  0.43773183  0.50901559  0.66503729     0.10800
H637        H  0.02799741  0.00002946  0.66477095     0.10500
H638        H  0.02899039  0.00219033  0.60758450     0.11600
H639        H  0.46056387  0.49907288  0.71499939     0.11700
H640        H  0.02244031  0.01699342  0.71293803     0.13600
H641        H  0.04568992  0.02071944  0.76209847     0.10100
H642        H  0.04647987  0.02114312  0.81938321     0.12200
H643        H  0.45814854  0.50024131  0.82273312     0.08800
H644        H  0.45721098  0.49964042  0.76566122     0.11600
C645        C  0.00122620  0.48474710  0.29184323    -0.03000
C646        C  0.49921588  0.95919161  0.27530303    -0.05600
C647        C  0.50009407  0.95855406  0.24239552    -0.20700
C648        C  0.50311330  0.98342840  0.22505586     0.25000
C649        C  0.00580824  0.50904310  0.24167259    -0.18300
C650        C  0.00464529  0.50968967  0.27468090    -0.08200
C651        C  0.50387387  0.98123752  0.18996630    -0.18500
C652        C  0.00009780  0.50304322  0.17053059    -0.23300
C653        C  0.99975653  0.50075003  0.13540586     0.27100
C654        C  0.99114426  0.52425354  0.11827681    -0.20100
C655        C  0.99020918  0.52338551  0.08538797    -0.09700
C656        C  0.51195749  0.51094622  0.07087925    -0.10300
C657        C  0.50655673  0.97529725  0.08556784    -0.03200
C658        C  0.50773549  0.97624818  0.11851038    -0.18300
H659        H  0.49646589  0.93965122  0.28791085     0.10800
H660        H  0.49818454  0.93847091  0.23041297     0.10800
H661        H  0.00920409  0.52863641  0.22947531     0.10500
H662        H  0.00686694  0.52965019  0.28684377     0.11600
H663        H  0.50622685  0.96027329  0.18021013     0.11700
H664        H  0.99575828  0.52362979  0.18054622     0.13600
H665        H  0.98496107  0.54342800  0.13040864     0.10100
H666        H  0.98332623  0.54192545  0.07308333     0.12200
H667        H  0.51270977  0.95614244  0.07339768     0.08800
H668        H  0.51510155  0.95774166  0.13034305     0.11600
C669        C  0.26457776  0.74814522  0.57208780    -0.03000
C670        C  0.27608821  0.72484703  0.58739047    -0.05600
C671        C  0.27848455  0.72466273  0.62017936    -0.20700
C672        C  0.26890060  0.74745448  0.63847831     0.25000
C673        C  0.25769534  0.77096169  0.62323048    -0.18300
C674        C  0.25567385  0.77133522  0.59035692    -0.08200
C675        C  0.27140645  0.74627578  0.67329365    -0.18500
C676        C  0.25276540  0.75860405  0.69314605    -0.23300
C677        C  0.25432627  0.75675809  0.72802632     0.27100
C678        C  0.22946161  0.75933164  0.74599429    -0.20100
C679        C  0.23004822  0.75867200  0.77888501    -0.09700
C680        C  0.25560661  0.75569892  0.79463794    -0.10300
C681        C  0.28055509  0.75303426  0.77668722    -0.03200
C682        C  0.27995952  0.75363020  0.74371064    -0.18300
H683        H  0.28335942  0.70674398  0.57400594     0.10800
H684        H  0.28744107  0.70644172  0.63134552     0.10800
H685        H  0.25081859  0.78921116  0.63659691     0.10500
H686        H  0.24685025  0.78965612  0.57928052     0.11600
H687        H  0.28793512  0.73326860  0.68270970     0.11700
H688        H  0.23465913  0.76917418  0.68351538     0.13600
H689        H  0.20945917  0.76179140  0.73451409     0.10100
H690        H  0.21043359  0.76040200  0.79204330     0.12200
H691        H  0.30060693  0.75115263  0.78818206     0.08800
H692        H  0.29964053  0.75236704  0.73066239     0.11600
C693        C  0.29028873  0.71592204  0.89581290    -0.03000
C694        C  0.27924765  0.69878334  0.91986273    -0.05600
C695        C  0.29588533  0.67789149  0.93325765    -0.20700
C696        C  0.32399128  0.67434900  0.92344846     0.25000
C697        C  0.33516638  0.69211889  0.90004388    -0.18300
C698        C  0.31848680  0.71260276  0.88637533    -0.08200
C699        C  0.34080072  0.65071353  0.93579171    -0.18500
C700        C  0.36884065  0.65264226  0.93900174    -0.23300
C701        C  0.38738454  0.62850355  0.94594033     0.27100
C702        C  0.41390865  0.63400662  0.95857253    -0.20100
C703        C  0.43364748  0.61254622  0.96139060    -0.09700
C704        C  0.42750926  0.58512859  0.95100590    -0.10300
C705        C  0.40064628  0.57936438  0.93917702    -0.03200
C706        C  0.38069602  0.60080908  0.93680484    -0.18300
H707        H  0.25750801  0.70087634  0.92744982     0.10800
H708        H  0.28674707  0.66430400  0.95106334     0.10800
H709        H  0.35651013  0.68952574  0.89133712     0.10500
H710        H  0.32752734  0.72564783  0.86800249     0.11600
H711        H  0.32990631  0.63137738  0.94190255     0.11700
H712        H  0.37896434  0.67293735  0.93576045     0.13600
H713        H  0.41965571  0.65518100  0.96553260     0.10100
H714        H  0.45415606  0.61770860  0.97054476     0.12200
H715        H  0.39527390  0.55841649  0.93108967     0.08800
H716        H  0.36066641  0.59589954  0.92634357     0.11600
C717        C  0.22234979  0.79668414  0.89720834    -0.03000
C718        C  0.20274810  0.78904518  0.92072909    -0.05600
C719        C  0.18417773  0.80911307  0.93349670    -0.20700
C720        C  0.18497950  0.83706873  0.92298395     0.25000
C721        C  0.20622487  0.84498943  0.90133491    -0.18300
C722        C  0.22446383  0.82497343  0.88839632    -0.08200
C723        C  0.16301492  0.85728654  0.93409826    -0.18500
C724        C  0.15493004  0.87913729  0.91629780    -0.23300
C725        C  0.13238131  0.89970142  0.92457192     0.27100
C726        C  0.12890680  0.92264158  0.90440984    -0.20100
C727        C  0.10759939  0.94222168  0.90985470    -0.09700
C728        C  0.08894233  0.93936625  0.93561131    -0.10300
C729        C  0.09241982  0.91655696  0.95607681    -0.03200
C730        C  0.11394912  0.89692346  0.95069394    -0.18300
H731        H  0.20090846  0.76735324  0.92810254     0.10800
H732        H  0.16841986  0.80255237  0.95060771     0.10800
H733        H  0.20868183  0.86657447  0.89392801     0.10500
H734        H  0.23996828  0.83149842  0.87096872     0.11600
H735        H  0.15253214  0.85303415  0.95639649     0.11700
H736        H  0.16498677  0.88199865  0.89343343     0.13600
H737        H  0.14268333  0.92538802  0.88408645     0.10100
H738        H  0.10555623  0.95945013  0.89353467     0.12200
H739        H  0.07839987  0.91377906  0.97616388     0.08800
H740        H  0.11560888  0.87954163  0.96676071     0.11600
C741        C  0.77221437  0.23612605  0.87911423     0.03300
C742        C  0.75498439  0.25511574  0.89599388    -0.12800
C743        C  0.73914029  0.27513636  0.87993904     0.00800
C744        C  0.73965239  0.27518386  0.84683646    -0.11400
C745        C  0.75604427  0.25583935  0.82958988     0.03300
C746        C  0.77259985  0.23665230  0.84595279    -0.10800
H747        H  0.75466994  0.25500243  0.92149466     0.08900
H748        H  0.72721829  0.29046839  0.83443931     0.06400
H749        H  0.78525322  0.22153668  0.83286426     0.06300
Zn750      Zn  0.99735061  0.46403853  0.97277356     1.49700
Zn751      Zn  0.97228303  0.00807210  0.92411673     1.49400
Zn752      Zn  0.00608590  0.04434376  0.97559461     1.49100
Zn753      Zn  0.52612279  0.00082304  0.91802190     1.49500
O754        O  0.00728260  0.01107597  0.94821466    -1.84000
O755        O  0.96305667  0.43921124  0.96895311    -0.74600
O756        O  0.94706107  0.04154278  0.93351228    -0.74400
O757        O  0.00674599  0.03371785  0.02148133    -0.73900
O758        O  0.93668619  0.45861093  0.93230675    -0.74600
O759        O  0.00028644  0.47489245  0.01899058    -0.74200
O760        O  0.97114285  0.06699592  0.96800775    -0.74800
O761        O  0.54860394  0.03627167  0.92641446    -0.74200
O762        O  0.98054373  0.00751161  0.87683786    -0.74900
O763        O  0.52428585  0.05659517  0.96529501    -0.74300
O764        O  0.51458538  0.00130736  0.87285368    -0.74800
O765        O  0.56526089  0.48155503  0.92310524    -0.74700
O766        O  0.54675529  0.45537720  0.96129475    -0.74500
C767        C  0.94092654  0.43932001  0.95239895     0.77300
C768        C  0.94959656  0.06329506  0.95100282     0.77800
C769        C  0.01101240  0.01075454  0.03584975     0.76800
C770        C  0.54519691  0.05628004  0.94621019     0.77100
C771        C  0.49158535  0.99754001  0.85849961     0.78300
C772        C  0.56578959  0.45979618  0.94040358     0.77300
C773        C  0.73032273  0.22197172  0.02292369     0.03300
C774        C  0.74463390  0.24287397  0.00553531    -0.12800
C775        C  0.76180663  0.26276749  0.02093728     0.00800
C776        C  0.76424695  0.26148493  0.05394432    -0.11400
C777        C  0.74998623  0.24095741  0.07147793     0.03300
C778        C  0.73321935  0.22131164  0.05583325    -0.10800
H779        H  0.74238505  0.24362908  0.98020880     0.08900
H780        H  0.77788271  0.27607686  0.06613411     0.06400
H781        H  0.72163503  0.20592681  0.06959735     0.06300
C782        C  0.51901589  0.47084048  0.37905324     0.03300
C783        C  0.52132287  0.47213890  0.34604835    -0.12800
C784        C  0.50002685  0.98523216  0.32676440     0.00800
C785        C  0.98808818  0.01032798  0.34548236    -0.11400
C786        C  0.98558626  0.00952186  0.37855970     0.03300
C787        C  0.49557384  0.98414573  0.39304457    -0.10800
H788        H  0.53535920  0.45782773  0.33360795     0.08900
H789        H  0.97566045  0.02519702  0.33248940     0.06400
H790        H  0.49417421  0.98392055  0.41855287     0.06300
Zn791      Zn  0.71877833  0.24339974  0.42717439     1.49700
Zn792      Zn  0.75335866  0.28061864  0.47679783     1.49400
Zn793      Zn  0.75908945  0.21341734  0.47674633     1.49100
Zn794      Zn  0.78596271  0.24911426  0.42053818     1.49500
O795        O  0.75418917  0.24665805  0.45031432    -1.84000
O796        O  0.69300717  0.27607565  0.43762072    -0.74600
O797        O  0.75676132  0.27085922  0.52303071    -0.74400
O798        O  0.72492357  0.18829280  0.47467784    -0.73900
O799        O  0.71739175  0.30240012  0.47093060    -0.74600
O800        O  0.69789351  0.20745817  0.43851868    -0.74200
O801        O  0.76393608  0.22473270  0.52227664    -0.74800
O802        O  0.81122802  0.21560835  0.42415143    -0.74200
O803        O  0.78575696  0.30647759  0.46544430    -0.74900
O804        O  0.79275705  0.19009612  0.46282927    -0.74300
O805        O  0.80940229  0.28415878  0.42739353    -0.74800
O806        O  0.77242539  0.24945156  0.37593370    -0.74700
O807        O  0.72606166  0.24448598  0.37992105    -0.74500
C808        C  0.69543478  0.29803424  0.45476785     0.77300
C809        C  0.76166736  0.24793867  0.53729107     0.77800
C810        C  0.70265235  0.18814120  0.45839689     0.76800
C811        C  0.81145538  0.19386490  0.44144521     0.77100
C812        C  0.80634247  0.30517606  0.44589119     0.78300
C813        C  0.74843197  0.24729688  0.36327449     0.77300
C814        C  0.96593256  0.49431664  0.51343692     0.03300
C815        C  0.48573105  0.51192630  0.50170540    -0.12800
C816        C  0.50651002  0.02563391  0.51815710     0.00800
C817        C  0.50457753  0.02284406  0.55118852    -0.11400
C818        C  0.48332997  0.00657675  0.56543530     0.03300
C819        C  0.96401854  0.49255282  0.54637667    -0.10800
H820        H  0.48803079  0.01272091  0.47388922     0.08900
H821        H  0.51964106  0.03340996  0.56603313     0.06400
H822        H  0.94785528  0.47947039  0.55705927     0.06300
C823        C  0.68161431  0.16542092  0.46343934    -0.03000
C824        C  0.68417994  0.14697085  0.48894231    -0.05600
C825        C  0.66325082  0.12711723  0.49553443    -0.20700
C826        C  0.63948059  0.12484901  0.47655418     0.25000
C827        C  0.63727950  0.14258309  0.45034635    -0.18300
C828        C  0.65811281  0.16272667  0.44392906    -0.08200
C829        C  0.61629651  0.10584696  0.48675338    -0.18500
C830        C  0.59709067  0.09464647  0.46730471    -0.23300
C831        C  0.57322660  0.07755236  0.47962848     0.27100
C832        C  0.56375102  0.05397288  0.46275601    -0.20100
C833        C  0.54190348  0.03718868  0.47490636    -0.09700
C834        C  0.52870421  0.04406602  0.50389746    -0.10300
C835        C  0.53739313  0.06860163  0.51980017    -0.03200
C836        C  0.55947523  0.08496484  0.50798188    -0.18300
H837        H  0.70196211  0.14843167  0.50448646     0.10800
H838        H  0.66537435  0.11381933  0.51595549     0.10800
H839        H  0.61895902  0.14181286  0.43558935     0.10500
H840        H  0.65549552  0.17660259  0.42410423     0.11600
H841        H  0.61517017  0.10061589  0.51162502     0.11700
H842        H  0.59933502  0.09720378  0.44199798     0.13600
H843        H  0.57381454  0.04807894  0.44062245     0.10100
H844        H  0.53590515  0.01847344  0.46197058     0.12200
H845        H  0.52708376  0.07532104  0.54147413     0.08800
H846        H  0.56559491  0.10365176  0.52091940     0.11600
C847        C  0.94552285  0.47839953  0.49431307    -0.03000
C848        C  0.91666732  0.48181674  0.50021672    -0.05600
C849        C  0.89721954  0.46388424  0.48616446    -0.20700
C850        C  0.90617593  0.44178299  0.46638773     0.25000
C851        C  0.93505823  0.43924794  0.45908622    -0.18300
C852        C  0.95457613  0.45753218  0.47292311    -0.08200
C853        C  0.88465059  0.42123584  0.45570730    -0.18500
C854        C  0.89008376  0.39403361  0.44892969    -0.23300
C855        C  0.86748500  0.37244915  0.44598716     0.27100
C856        C  0.87287428  0.34747438  0.42912242    -0.20100
C857        C  0.85282857  0.32581739  0.42836840    -0.09700
C858        C  0.82712854  0.32852034  0.44497078    -0.10300
C859        C  0.82169715  0.35359740  0.46161312    -0.03200
C860        C  0.84157349  0.37524107  0.46217504    -0.18300
H861        H  0.90925301  0.49784119  0.51657806     0.10800
H862        H  0.87513095  0.46647145  0.49200431     0.10800
H863        H  0.94268922  0.42296683  0.44325622     0.10500
H864        H  0.97678561  0.45456978  0.46811126     0.11600
H865        H  0.86297904  0.42825638  0.45660626     0.11700
H866        H  0.91165010  0.38677161  0.44735779     0.13600
H867        H  0.89278178  0.34459342  0.41680221     0.10100
H868        H  0.85773041  0.30671488  0.41540066     0.12200
H869        H  0.80218477  0.35637540  0.47472109     0.08800
H870        H  0.83689112  0.39361711  0.47643210     0.11600
C871        C  0.53635516  0.45038048  0.39614650    -0.03000
C872        C  0.52388360  0.43018200  0.41588734    -0.05600
C873        C  0.54027558  0.40899528  0.42909296    -0.20700
C874        C  0.56944532  0.40812908  0.42345602     0.25000
C875        C  0.58191455  0.42891515  0.40436852    -0.18300
C876        C  0.56551296  0.44971528  0.39079625    -0.08200
C877        C  0.58614314  0.38414176  0.43526681    -0.18500
C878        C  0.61360750  0.38655743  0.44208440    -0.23300
C879        C  0.63220199  0.36238811  0.44903106     0.27100
C880        C  0.65750903  0.36757952  0.46460471    -0.20100
C881        C  0.67746862  0.34632544  0.46776846    -0.09700
C882        C  0.67277225  0.31942583  0.45493915    -0.10300
C883        C  0.64698813  0.31390445  0.44032327    -0.03200
C884        C  0.62688034  0.33512312  0.43743634    -0.18300
H885        H  0.50136863  0.43016845  0.42005540     0.10800
H886        H  0.53013550  0.39304728  0.44340844     0.10800
H887        H  0.60416694  0.42848605  0.39874070     0.10500
H888        H  0.57552692  0.46504121  0.37553268     0.11600
H889        H  0.57553464  0.36407511  0.43812570     0.11700
H890        H  0.62322521  0.40728804  0.44208498     0.13600
H891        H  0.66221243  0.38840693  0.47358376     0.10100
H892        H  0.69708443  0.35133251  0.47914876     0.12200
H893        H  0.64268673  0.29340428  0.43022308     0.08800
H894        H  0.60790988  0.33041959  0.42470006     0.11600
C895        C  0.83373221  0.17254199  0.43596179    -0.03000
C896        C  0.85461458  0.17716569  0.41280542    -0.05600
C897        C  0.87495547  0.15685162  0.40624343    -0.20700
C898        C  0.87522899  0.13144573  0.42276897     0.25000
C899        C  0.85458164  0.12676007  0.44628052    -0.18300
C900        C  0.83400956  0.14716189  0.45279770    -0.08200
C901        C  0.89675936  0.11032562  0.41333166    -0.18500
C902        C  0.90563640  0.08898825  0.43137420    -0.23300
C903        C  0.92806438  0.06932282  0.42020997     0.27100
C904        C  0.92853993  0.04154566  0.43125605    -0.20100
C905        C  0.94794868  0.02213515  0.41873793    -0.09700
C906        C  0.96727449  0.03029907  0.39510546    -0.10300
C907        C  0.96802357  0.05852190  0.38578075    -0.03200
C908        C  0.94884346  0.07782606  0.39829038    -0.18300
H909        H  0.85511328  0.19642176  0.39936825     0.10800
H910        H  0.89054854  0.16100002  0.38799387     0.10800
H911        H  0.85374800  0.10720530  0.45907729     0.10500
H912        H  0.81809969  0.14288205  0.47063999     0.11600
H913        H  0.90605483  0.11299597  0.39004967     0.11700
H914        H  0.89604641  0.08537137  0.45433489     0.13600
H915        H  0.91320195  0.03458063  0.44865712     0.10100
H916        H  0.94704969  0.00053411  0.42649719     0.12200
H917        H  0.98330154  0.06560468  0.36837796     0.08800
H918        H  0.95035690  0.09937857  0.39051409     0.11600
C919        C  0.74672862  0.24822937  0.32849068    -0.03000
C920        C  0.72147645  0.25521024  0.31378261    -0.05600
C921        C  0.72028670  0.25682802  0.28091324    -0.20700
C922        C  0.74407783  0.25084077  0.26209893     0.25000
C923        C  0.76935602  0.24388242  0.27680764    -0.18300
C924        C  0.77067406  0.24271956  0.30964527    -0.08200
C925        C  0.74219103  0.25292019  0.22730986    -0.18500
C926        C  0.75748955  0.23669923  0.20739604    -0.23300
C927        C  0.75531364  0.23833117  0.17260969     0.27100
C928        C  0.76002513  0.21402295  0.15437361    -0.20100
C929        C  0.75819212  0.21483102  0.12153994    -0.09700
C930        C  0.75227484  0.24015939  0.10626008    -0.10300
C931        C  0.74817457  0.26464437  0.12442496    -0.03200
C932        C  0.74953727  0.26374085  0.15730665    -0.18300
H933        H  0.70276897  0.25985384  0.32769395     0.10800
H934        H  0.70065949  0.26252276  0.27011936     0.10800
H935        H  0.78828266  0.23989805  0.26304984     0.10500
H936        H  0.79047301  0.23741843  0.32029671     0.11600
H937        H  0.72661261  0.26708570  0.21792710     0.11700
H938        H  0.77089478  0.22048035  0.21684455     0.13600
H939        H  0.76479652  0.19427775  0.16560815     0.10100
H940        H  0.76167576  0.19572524  0.10801412     0.12200
H941        H  0.74355257  0.28440684  0.11316548     0.08800
H942        H  0.74651879  0.28300904  0.17063074     0.11600
C943        C  0.77789290  0.28465674  0.00318704    -0.03000
C944        C  0.79165345  0.27839999  0.97436875    -0.05600
C945        C  0.80970570  0.29815325  0.96014279    -0.20700
C946        C  0.81478517  0.32419478  0.97483692     0.25000
C947        C  0.79973592  0.33104050  0.00256070    -0.18300
C948        C  0.78141133  0.31161978  0.01641231    -0.08200
C949        C  0.83663039  0.34363513  0.96202763    -0.18500
C950        C  0.85422712  0.35730265  0.98149348    -0.23300
C951        C  0.87714347  0.37660177  0.97119818     0.27100
C952        C  0.90058888  0.37945858  0.99055646    -0.20100
C953        C  0.92159214  0.39912719  0.98373388    -0.09700
C954        C  0.91947419  0.41694343  0.95761982    -0.10300
C955        C  0.89615152  0.41386017  0.93783743    -0.03200
C956        C  0.87523091  0.39373619  0.94445317    -0.18300
H957        H  0.78960043  0.25779776  0.96364955     0.10800
H958        H  0.82082646  0.29252655  0.93855170     0.10800
H959        H  0.80246752  0.35133791  0.01384257     0.10500
H960        H  0.77045689  0.31753131  0.03800293     0.11600
H961        H  0.83956457  0.34511541  0.93667600     0.11700
H962        H  0.85265902  0.35309818  0.00659643     0.13600
H963        H  0.90249242  0.36662326  0.01137731     0.10100
H964        H  0.93914466  0.40089914  0.99956450     0.12200
H965        H  0.89384348  0.42728999  0.91757535     0.08800
H966        H  0.85713072  0.39237663  0.92938131     0.11600
C967        C  0.56610342  0.07940799  0.94760447    -0.03000
C968        C  0.58526424  0.08409226  0.92258366    -0.05600
C969        C  0.60567129  0.10530221  0.92476177    -0.20700
C970        C  0.60773675  0.12163013  0.95228501     0.25000
C971        C  0.58814520  0.11746367  0.97693259    -0.18300
C972        C  0.56744516  0.09671816  0.97453114    -0.08200
C973        C  0.63098045  0.14223138  0.95564778    -0.18500
C974        C  0.64575080  0.14348721  0.98235812    -0.23300
C975        C  0.66965268  0.16287761  0.98785013     0.27100
C976        C  0.69046073  0.15440498  0.00868171    -0.20100
C977        C  0.71130327  0.17311879  0.01820989    -0.09700
C978        C  0.71150316  0.20105512  0.00769209    -0.10300
C979        C  0.69157561  0.20922268  0.98542703    -0.03200
C980        C  0.67077769  0.19024640  0.97552476    -0.18300
H981        H  0.58457718  0.07126626  0.90141411     0.10800
H982        H  0.62046621  0.10830366  0.90543166     0.10800
H983        H  0.58898430  0.13016075  0.99819469     0.10500
H984        H  0.55293329  0.09376608  0.99413869     0.11600
H985        H  0.63726384  0.15479782  0.93547972     0.11700
H986        H  0.64080313  0.12857342  0.00093026     0.13600
H987        H  0.69012980  0.13339482  0.01833829     0.10100
H988        H  0.72669905  0.16602012  0.03487327     0.12200
H989        H  0.69108320  0.23066658  0.97709051     0.08800
H990        H  0.65475775  0.19747611  0.95972102     0.11600
C991        C  0.48145030  0.00392633  0.60030777    -0.03000
C992        C  0.95836718  0.00862864  0.61982737    -0.05600
C993        C  0.95775844  0.00761034  0.65275465    -0.20700
C994        C  0.98270837  0.00517765  0.66971821     0.25000
C995        C  0.50840169  0.50278938  0.65283991    -0.18300
C996        C  0.50901791  0.50388207  0.61989962    -0.08200
C997        C  0.98089925  0.00429196  0.70480136    -0.18500
C998        C  0.50265076  0.51043136  0.72367786    -0.23300
C999        C  0.50150252  0.51029507  0.75887924     0.27100
C1000       C  0.52631805  0.51648909  0.77502498    -0.20100
C1001       C  0.52676468  0.51679665  0.80792175    -0.09700
C1002       C  0.49201525  0.99801201  0.82350988    -0.10300
C1003       C  0.97728326  0.00518698  0.80971567    -0.03200
C1004       C  0.97682067  0.00487727  0.77670113    -0.18300
H1005       H  0.93878983  0.01110836  0.60753381     0.10800
H1006       H  0.93768174  0.00907754  0.66506373     0.10800
H1007       H  0.52802415  0.49971979  0.66477020     0.10500
H1008       H  0.52904019  0.50191760  0.60758708     0.11600
H1009       H  0.96059023  0.99901479  0.71499950     0.11700
H1010       H  0.52253509  0.51661270  0.71294022     0.13600
H1011       H  0.54559712  0.52110365  0.76210589     0.10100
H1012       H  0.54636741  0.52164213  0.81939137     0.12200
H1013       H  0.95801021  0.00080640  0.82271633     0.08800
H1014       H  0.95704365  0.00037882  0.76564527     0.11600
C1015       C  0.50132536  0.98477983  0.29177868    -0.03000
C1016       C  0.99898080  0.45916923  0.27536921    -0.05600
C1017       C  0.99992094  0.45852045  0.24246224    -0.20700
C1018       C  0.00312619  0.48337540  0.22512924     0.25000
C1019       C  0.50566725  0.00910993  0.24160602    -0.18300
C1020       C  0.50456115  0.00974290  0.27461434    -0.08200
C1021       C  0.00398398  0.48119680  0.19004726    -0.18500
C1022       C  0.50027347  0.00311470  0.17041860    -0.23300
C1023       C  0.49985604  0.00077041  0.13530320     0.27100
C1024       C  0.49135821  0.02430152  0.11815302    -0.20100
C1025       C  0.49037705  0.02339918  0.08527127    -0.09700
C1026       C  0.01188467  0.01092948  0.07083332    -0.10300
C1027       C  0.00666018  0.47537710  0.08563960    -0.03200
C1028       C  0.00779782  0.47629571  0.11858383    -0.18300
H1029       H  0.99609568  0.43964800  0.28797958     0.10800
H1030       H  0.99791416  0.43845027  0.23047411     0.10800
H1031       H  0.50889695  0.02873715  0.22943189     0.10500
H1032       H  0.50667018  0.02971786  0.28677475     0.11600
H1033       H  0.00662334  0.46026761  0.18028715     0.11700
H1034       H  0.49623712  0.02377856  0.18037910     0.13600
H1035       H  0.48530224  0.04352662  0.13026302     0.10100
H1036       H  0.48359077  0.04196765  0.07295292     0.12200
H1037       H  0.01293196  0.45626960  0.07345114     0.08800
H1038       H  0.01524113  0.45781047  0.13039138     0.11600
C1039       C  0.76464098  0.24810307  0.57203545    -0.03000
C1040       C  0.77608041  0.22477730  0.58735425    -0.05600
C1041       C  0.77850296  0.22461444  0.62014148    -0.20700
C1042       C  0.76901598  0.24745780  0.63842172     0.25000
C1043       C  0.75788773  0.27099262  0.62315770    -0.18300
C1044       C  0.75583972  0.27134327  0.59028697    -0.08200
C1045       C  0.77151666  0.24629591  0.67323772    -0.18500
C1046       C  0.75287640  0.25865158  0.69306847    -0.23300
C1047       C  0.75439402  0.25678709  0.72794852     0.27100
C1048       C  0.72950150  0.25930577  0.74587708    -0.20100
C1049       C  0.73004529  0.25862235  0.77876882    -0.09700
C1050       C  0.75558707  0.25568072  0.79456008    -0.10300
C1051       C  0.78056416  0.25307161  0.77664796    -0.03200
C1052       C  0.78001123  0.25368930  0.74367021    -0.18300
H1053       H  0.78327190  0.20663437  0.57398494     0.10800
H1054       H  0.78739672  0.20636967  0.63132183     0.10800
H1055       H  0.75108614  0.28927752  0.63651179     0.10500
H1056       H  0.74707561  0.28968790  0.57919998     0.11600
H1057       H  0.78801971  0.23326675  0.68267344     0.11700
H1058       H  0.73479070  0.26924146  0.68341671     0.13600
H1059       H  0.70951119  0.26173852  0.73436487     0.10100
H1060       H  0.71041160  0.26030854  0.79189792     0.12200
H1061       H  0.80060333  0.25121263  0.78817511     0.08800
H1062       H  0.79970893  0.25246387  0.73064817     0.11600
C1063       C  0.79020781  0.21583778  0.89571734    -0.03000
C1064       C  0.77917754  0.19869609  0.91977002    -0.05600
C1065       C  0.79583114  0.17782413  0.93317322    -0.20700
C1066       C  0.82394025  0.17430754  0.92336828     0.25000
C1067       C  0.83510311  0.19207665  0.89995718    -0.18300
C1068       C  0.81840861  0.21254151  0.88628163    -0.08200
C1069       C  0.84076897  0.15069740  0.93572254    -0.18500
C1070       C  0.86880343  0.15266297  0.93894765    -0.23300
C1071       C  0.88736460  0.12853896  0.94587037     0.27100
C1072       C  0.91387294  0.13404911  0.95853844    -0.20100
C1073       C  0.93361817  0.11259550  0.96136229    -0.09700
C1074       C  0.92749916  0.08518239  0.95094759    -0.10300
C1075       C  0.90065623  0.07941575  0.93906834    -0.03200
C1076       C  0.88070172  0.10085128  0.93668900    -0.18300
H1077       H  0.75743569  0.20077278  0.92735516     0.10800
H1078       H  0.78670436  0.16423370  0.95098294     0.10800
H1079       H  0.85645032  0.18949898  0.89125488     0.10500
H1080       H  0.82744107  0.22559185  0.86790848     0.11600
H1081       H  0.82989530  0.13134689  0.94182078     0.11700
H1082       H  0.87890558  0.17297089  0.93572196     0.13600
H1083       H  0.91960000  0.15522094  0.96552801     0.10100
H1084       H  0.95411421  0.11775840  0.97055020     0.12200
H1085       H  0.89530184  0.05847327  0.93095175     0.08800
H1086       H  0.86068835  0.09593991  0.92619165     0.11600
C1087       C  0.72224259  0.29654864  0.89716870    -0.03000
C1088       C  0.70261213  0.28888819  0.92065066    -0.05600
C1089       C  0.68407711  0.30896189  0.93347082    -0.20700
C1090       C  0.68494495  0.33694258  0.92304804     0.25000
C1091       C  0.70622248  0.34487747  0.90144584    -0.18300
C1092       C  0.72442459  0.32485599  0.88845168    -0.08200
C1093       C  0.66299431  0.35716816  0.93417143    -0.18500
C1094       C  0.65491738  0.37901522  0.91636242    -0.23300
C1095       C  0.63235399  0.39956795  0.92461181     0.27100
C1096       C  0.62894905  0.42255739  0.90450503    -0.20100
C1097       C  0.60763132  0.44213091  0.90992531    -0.09700
C1098       C  0.58889621  0.43922194  0.93560403    -0.10300
C1099       C  0.59229430  0.41635185  0.95600430    -0.03200
C1100       C  0.61383095  0.39672203  0.95064313    -0.18300
H1101       H  0.70072604  0.26718030  0.92795413     0.10800
H1102       H  0.66829122  0.30238941  0.95054395     0.10800
H1103       H  0.70872308  0.36647907  0.89411146     0.10500
H1104       H  0.73995554  0.33139237  0.87105778     0.11600
H1105       H  0.65250277  0.35291686  0.95646574     0.11700
H1106       H  0.66499360  0.38188045  0.89350852     0.13600
H1107       H  0.64279356  0.42535109  0.88424572     0.10100
H1108       H  0.60565138  0.45940527  0.89365511     0.12200
H1109       H  0.57820807  0.41352473  0.97602544     0.08800
H1110       H  0.61542645  0.37928916  0.96665051     0.11600
C1111       C  0.75605727  0.72141502  0.87746241     0.03300
C1112       C  0.73847468  0.73960098  0.89493987    -0.12800
C1113       C  0.72309416  0.76038182  0.87954651     0.00800
C1114       C  0.72446750  0.76208271  0.84654533    -0.11400
C1115       C  0.74120492  0.74347777  0.82869837     0.03300
C1116       C  0.75722198  0.72341338  0.84442623    -0.10800
H1117       H  0.73770524  0.73838634  0.92042823     0.08900
H1118       H  0.71252131  0.77813678  0.83475964     0.06400
H1119       H  0.77029437  0.70892632  0.83095031     0.06300
Zn1120     Zn  0.01188980  0.97750075  0.97432027     1.49700
Zn1121     Zn  0.95891417  0.49394071  0.92083216     1.49400
Zn1122     Zn  0.99130853  0.53077126  0.97303166     1.49100
Zn1123     Zn  0.53933950  0.51465792  0.91899076     1.49500
O1124       O  0.99326800  0.49726849  0.94610956    -1.84000
O1125       O  0.97793511  0.95217674  0.97045653    -0.74600
O1126       O  0.93348067  0.52754256  0.92925906    -0.74400
O1127       O  0.99189646  0.52074605  0.01898991    -0.73900
O1128       O  0.95038746  0.97286448  0.93586609    -0.74600
O1129       O  0.01441218  0.98774206  0.02069715    -0.74200
O1130       O  0.95628361  0.55289062  0.96490825    -0.74800
O1131       O  0.56205026  0.55006591  0.92692493    -0.74200
O1132       O  0.96855513  0.49348039  0.87374571    -0.74900
O1133       O  0.53973509  0.56945565  0.96789851    -0.74300
O1134       O  0.52662779  0.51487757  0.87405632    -0.74800
O1135       O  0.55155667  0.96745952  0.92249572    -0.74700
O1136       O  0.53172618  0.94123248  0.95980583    -0.74500
C1137       C  0.95524783  0.95292165  0.95490747     0.77300
C1138       C  0.93532446  0.54919702  0.94704468     0.77800
C1139       C  0.99662333  0.49808367  0.03372899     0.76800
C1140       C  0.55987470  0.56937997  0.94776880     0.77100
C1141       C  0.50312000  0.51113642  0.86070858     0.78300
C1142       C  0.55122556  0.94546169  0.93941922     0.77300
C1143       C  0.74513231  0.73568836  0.02313751     0.03300
C1144       C  0.75827185  0.75767333  0.00632209    -0.12800
C1145       C  0.77468787  0.77796160  0.02218633     0.00800
C1146       C  0.77728693  0.77608359  0.05514350    -0.11400
C1147       C  0.76405188  0.75454688  0.07205737     0.03300
C1148       C  0.74817050  0.73448913  0.05597594    -0.10800
H1149       H  0.75586730  0.75880881  0.98103957     0.08900
H1150       H  0.79037318  0.79086383  0.06779057     0.06400
H1151       H  0.73745796  0.71825212  0.06937295     0.06300
C1152       C  0.51348533  0.96516990  0.37708890     0.03300
C1153       C  0.51540757  0.96575063  0.34404944    -0.12800
C1154       C  0.50572043  0.49164952  0.32901126     0.00800
C1155       C  0.98295690  0.50470245  0.34307179    -0.11400
C1156       C  0.98056687  0.50433132  0.37616412     0.03300
C1157       C  0.50074760  0.48930152  0.39526597    -0.10800
H1158       H  0.52905216  0.95096660  0.33175261     0.08900
H1159       H  0.97091238  0.51974838  0.32986429     0.06400
H1160       H  0.49913890  0.48854287  0.42074154     0.06300
Zn1161     Zn  0.71877325  0.74253303  0.42488191     1.49700
Zn1162     Zn  0.75068883  0.77918711  0.47700088     1.49400
Zn1163     Zn  0.75787480  0.71209442  0.47543535     1.49100
Zn1164     Zn  0.78615055  0.74909664  0.42191402     1.49500
O1165       O  0.75322781  0.74576599  0.44978839    -1.84000
O1166       O  0.69196042  0.77451663  0.43496601    -0.74600
O1167       O  0.75231726  0.76833779  0.52296145    -0.74400
O1168       O  0.72384622  0.68716298  0.47172967    -0.73900
O1169       O  0.71458000  0.80052965  0.47008415    -0.74600
O1170       O  0.69788171  0.70621855  0.43451647    -0.74200
O1171       O  0.76146118  0.72255021  0.52132475    -0.74800
O1172       O  0.81134217  0.71532136  0.42474904    -0.74200
O1173       O  0.78324476  0.80570030  0.46825285    -0.74900
O1174       O  0.79179498  0.68889674  0.46192210    -0.74300
O1175       O  0.80902336  0.78383985  0.43160751    -0.74800
O1176       O  0.77426924  0.75129763  0.37691665    -0.74700
O1177       O  0.72799004  0.74484338  0.37811480    -0.74500
C1178       C  0.69328684  0.79609320  0.45287186     0.77300
C1179       C  0.75769310  0.74532649  0.53679502     0.77800
C1180       C  0.70211057  0.68692928  0.45458422     0.76800
C1181       C  0.81100180  0.69305963  0.44121292     0.77100
C1182       C  0.80488591  0.80463049  0.45017351     0.78300
C1183       C  0.75094096  0.74891871  0.36286407     0.77300
C1184       C  0.96514553  0.99552605  0.51713671     0.03300
C1185       C  0.48716450  0.01088295  0.49930521    -0.12800
C1186       C  0.50580797  0.52701959  0.51922500     0.00800
C1187       C  0.50535831  0.52456860  0.55234038    -0.11400
C1188       C  0.48475784  0.50852560  0.56799816     0.03300
C1189       C  0.96466515  0.99423664  0.55016823    -0.10800
H1190       H  0.48545575  0.51347583  0.47627409     0.08900
H1191       H  0.52100673  0.53533795  0.56620195     0.06400
H1192       H  0.94905272  0.98125167  0.56197592     0.06300
C1193       C  0.68096996  0.66425208  0.45911421    -0.03000
C1194       C  0.68337011  0.64561917  0.48446069    -0.05600
C1195       C  0.66219011  0.62608499  0.49105072    -0.20700
C1196       C  0.63827392  0.62432805  0.47226118     0.25000
C1197       C  0.63625097  0.64215309  0.44609965    -0.18300
C1198       C  0.65739401  0.66198389  0.43964937    -0.08200
C1199       C  0.61484442  0.60580239  0.48280398    -0.18500
C1200       C  0.59475107  0.59542635  0.46393900    -0.23300
C1201       C  0.57090377  0.57877488  0.47706110     0.27100
C1202       C  0.56029274  0.55554481  0.46044506    -0.20100
C1203       C  0.53885395  0.53886697  0.47369544    -0.09700
C1204       C  0.52720485  0.54553547  0.50356799    -0.10300
C1205       C  0.53680388  0.56993066  0.51907537    -0.03200
C1206       C  0.55849189  0.58613341  0.50617433    -0.18300
H1207       H  0.70119428  0.64673908  0.49997306     0.10800
H1208       H  0.66420108  0.61269913  0.51141561     0.10800
H1209       H  0.61784475  0.64174931  0.43146556     0.10500
H1210       H  0.65490031  0.67603754  0.41995772     0.11600
H1211       H  0.61427980  0.60021484  0.50759082     0.11700
H1212       H  0.59624385  0.59827084  0.43862193     0.13600
H1213       H  0.56926543  0.54973902  0.43771437     0.10100
H1214       H  0.53208921  0.52032918  0.46093895     0.12200
H1215       H  0.52758804  0.57664823  0.54134225     0.08800
H1216       H  0.56542482  0.60461742  0.51895448     0.11600
C1217       C  0.94404032  0.97918827  0.49939603    -0.03000
C1218       C  0.91546936  0.98182074  0.50742836    -0.05600
C1219       C  0.89566916  0.96352361  0.49462114    -0.20700
C1220       C  0.90401162  0.94183890  0.47396364     0.25000
C1221       C  0.93248741  0.94009854  0.46451850    -0.18300
C1222       C  0.95233750  0.95876745  0.47708049    -0.08200
C1223       C  0.88236685  0.92103119  0.46427356    -0.18500
C1224       C  0.88800825  0.89395207  0.45712074    -0.23300
C1225       C  0.86569932  0.87210038  0.45384829     0.27100
C1226       C  0.87172004  0.84726857  0.43700492    -0.20100
C1227       C  0.85186816  0.82552105  0.43532249    -0.09700
C1228       C  0.82565741  0.82796970  0.45089851    -0.10300
C1229       C  0.81963753  0.85281409  0.46774037    -0.03200
C1230       C  0.83937474  0.87457486  0.46926146    -0.18300
H1231       H  0.90860071  0.99753780  0.52445172     0.10800
H1232       H  0.87387977  0.96552518  0.50204096     0.10800
H1233       H  0.93956018  0.92417494  0.44790837     0.10500
H1234       H  0.97429346  0.95645491  0.47050130     0.11600
H1235       H  0.86065993  0.92783266  0.46594179     0.11700
H1236       H  0.90967049  0.88705162  0.45500613     0.13600
H1237       H  0.89193397  0.84461425  0.42528129     0.10100
H1238       H  0.85725069  0.80659730  0.42226319     0.12200
H1239       H  0.79972773  0.85536057  0.48012232     0.08800
H1240       H  0.83416575  0.89281979  0.48349181     0.11600
C1241       C  0.53108206  0.94508549  0.39439961    -0.03000
C1242       C  0.51895214  0.92508699  0.41465134    -0.05600
C1243       C  0.53562653  0.90414699  0.42793931    -0.20700
C1244       C  0.56473457  0.90334857  0.42183104     0.25000
C1245       C  0.57685247  0.92395083  0.40223444    -0.18300
C1246       C  0.56017917  0.94448852  0.38860790    -0.08200
C1247       C  0.58179959  0.87962745  0.43365934    -0.18500
C1248       C  0.60921522  0.88257998  0.44046749    -0.23300
C1249       C  0.62835081  0.85880879  0.44727072     0.27100
C1250       C  0.65333641  0.86445738  0.46328405    -0.20100
C1251       C  0.67384915  0.84371966  0.46631784    -0.09700
C1252       C  0.67007500  0.81690909  0.45287498    -0.10300
C1253       C  0.64462172  0.81090839  0.43775395    -0.03200
C1254       C  0.62392584  0.83159947  0.43504584    -0.18300
H1255       H  0.49648551  0.92499415  0.41911113     0.10800
H1256       H  0.52575455  0.88832853  0.44266220     0.10800
H1257       H  0.59903891  0.92354648  0.39626337     0.10500
H1258       H  0.56992967  0.95964406  0.37291836     0.11600
H1259       H  0.57158562  0.85934528  0.43643964     0.11700
H1260       H  0.61839099  0.90351358  0.44052736     0.13600
H1261       H  0.65735178  0.88526599  0.47273869     0.10100
H1262       H  0.69317325  0.84908319  0.47810982     0.12200
H1263       H  0.64101583  0.79044821  0.42720675     0.08800
H1264       H  0.60520352  0.82660112  0.42197745     0.11600
C1265       C  0.83308130  0.67152499  0.43545878    -0.03000
C1266       C  0.85355067  0.67569945  0.41172927    -0.05600
C1267       C  0.87355331  0.65508316  0.40486946    -0.20700
C1268       C  0.87389880  0.62977849  0.42162838     0.25000
C1269       C  0.85365931  0.62558604  0.44572771    -0.18300
C1270       C  0.83345492  0.64628566  0.45254578    -0.08200
C1271       C  0.89512344  0.60833352  0.41193103    -0.18500
C1272       C  0.90271010  0.58589177  0.42907566    -0.23300
C1273       C  0.92442433  0.56556091  0.41756413     0.27100
C1274       C  0.92340572  0.53748102  0.42763313    -0.20100
C1275       C  0.94230388  0.51758198  0.41513807    -0.09700
C1276       C  0.96260013  0.52550464  0.39246948    -0.10300
C1277       C  0.96466075  0.55385235  0.38386662    -0.03200
C1278       C  0.94600041  0.57368401  0.39641838    -0.18300
H1279       H  0.85393517  0.69480803  0.39802953     0.10800
H1280       H  0.88879830  0.65891045  0.38616628     0.10800
H1281       H  0.85281930  0.60621996  0.45885437     0.10500
H1282       H  0.81788970  0.64234317  0.47086492     0.11600
H1283       H  0.90507997  0.61150113  0.38907221     0.11700
H1284       H  0.89243719  0.58170439  0.45152583     0.13600
H1285       H  0.90735957  0.53072972  0.44432581     0.10100
H1286       H  0.94031184  0.49584065  0.42215264     0.12200
H1287       H  0.98060552  0.56062354  0.36705382     0.08800
H1288       H  0.94857007  0.59533100  0.38933130     0.11600
C1289       C  0.75075569  0.75108132  0.32809244    -0.03000
C1290       C  0.72558132  0.75554579  0.31204764    -0.05600
C1291       C  0.72576792  0.75825267  0.27923964    -0.20700
C1292       C  0.75097988  0.75597533  0.26181284     0.25000
C1293       C  0.77617507  0.75159195  0.27785388    -0.18300
C1294       C  0.77605174  0.74924921  0.31062934    -0.08200
C1295       C  0.75054457  0.75922990  0.22710343    -0.18500
C1296       C  0.76890185  0.74611404  0.20757263    -0.23300
C1297       C  0.76810124  0.74898938  0.17286096     0.27100
C1298       C  0.77607171  0.72609473  0.15374637    -0.20100
C1299       C  0.77492272  0.72794356  0.12094434    -0.09700
C1300       C  0.76648051  0.75299814  0.10669277    -0.10300
C1301       C  0.75946892  0.77625762  0.12573523    -0.03200
C1302       C  0.76010133  0.77424532  0.15856573    -0.18300
H1303       H  0.70580530  0.75731574  0.32486808     0.10800
H1304       H  0.70613930  0.76191340  0.26739743     0.10800
H1305       H  0.79608313  0.75054318  0.26523361     0.10500
H1306       H  0.79583137  0.74598193  0.32229928     0.11600
H1307       H  0.73368525  0.77157639  0.21729346     0.11700
H1308       H  0.78388184  0.73138714  0.21709456     0.13600
H1309       H  0.78262919  0.70655290  0.16424985     0.10100
H1310       H  0.78064290  0.70982996  0.10664439     0.12200
H1311       H  0.75293527  0.79578126  0.11518645     0.08800
H1312       H  0.75458522  0.79250701  0.17268589     0.11600
C1313       C  0.79036297  0.80043607  0.00487088    -0.03000
C1314       C  0.80339274  0.79502610  0.97541912    -0.05600
C1315       C  0.82155588  0.81491376  0.96169653    -0.20700
C1316       C  0.82742006  0.84026097  0.97742432     0.25000
C1317       C  0.81299065  0.84646030  0.00572184    -0.18300
C1318       C  0.79451630  0.82691964  0.01910994    -0.08200
C1319       C  0.84941246  0.85959899  0.96493191    -0.18500
C1320       C  0.86793337  0.87190744  0.98439041    -0.23300
C1321       C  0.89098621  0.89095306  0.97401376     0.27100
C1322       C  0.91525503  0.89245514  0.99225480    -0.20100
C1323       C  0.93650004  0.91182785  0.98524093    -0.09700
C1324       C  0.93376274  0.93063420  0.96010679    -0.10300
C1325       C  0.90962647  0.92884190  0.94141700    -0.03200
C1326       C  0.88847853  0.90907295  0.94819839    -0.18300
H1327       H  0.80073096  0.77492550  0.96371892     0.10800
H1328       H  0.83218411  0.80986981  0.93962616     0.10800
H1329       H  0.81635529  0.86629562  0.01779106     0.10500
H1330       H  0.78402727  0.83233194  0.04114147     0.11600
H1331       H  0.85170538  0.86201780  0.93960618     0.11700
H1332       H  0.86698045  0.86675440  0.00929244     0.13600
H1333       H  0.91761614  0.87880877  0.01234351     0.10100
H1334       H  0.95471145  0.91263121  0.00020748     0.12200
H1335       H  0.90682644  0.94307153  0.92194590     0.08800
H1336       H  0.86975901  0.90877260  0.93403650     0.11600
C1337       C  0.58149678  0.59181295  0.94927166    -0.03000
C1338       C  0.59833139  0.59847584  0.92280486    -0.05600
C1339       C  0.61944019  0.61900353  0.92491940    -0.20700
C1340       C  0.62461166  0.63257838  0.95371874     0.25000
C1341       C  0.60742737  0.62629678  0.97999586    -0.18300
C1342       C  0.58599566  0.60629000  0.97773117    -0.08200
C1343       C  0.64803962  0.65312318  0.95626349    -0.18500
C1344       C  0.66455621  0.65356519  0.98168217    -0.23300
C1345       C  0.68771329  0.67394879  0.98695666     0.27100
C1346       C  0.70907146  0.66628174  0.00749458    -0.20100
C1347       C  0.72891977  0.68593342  0.01732081    -0.09700
C1348       C  0.72757317  0.71399588  0.00737401    -0.10300
C1349       C  0.70726547  0.72137891  0.98522016    -0.03200
C1350       C  0.68744990  0.70149087  0.97504407    -0.18300
H1351       H  0.59517998  0.58780925  0.90049729     0.10800
H1352       H  0.63225826  0.62371468  0.90431794     0.10800
H1353       H  0.61052876  0.63692263  0.00233687     0.10500
H1354       H  0.57335814  0.60167645  0.99850307     0.11600
H1355       H  0.65255026  0.66687908  0.93653004     0.11700
H1356       H  0.66125357  0.63765284  0.99961927     0.13600
H1357       H  0.70985065  0.64518044  0.01684613     0.10100
H1358       H  0.74469409  0.67942992  0.03384134     0.12200
H1359       H  0.70562286  0.74287786  0.97730266     0.08800
H1360       H  0.67101389  0.70816698  0.95949721     0.11600
C1361       C  0.48407207  0.50691914  0.60300366    -0.03000
C1362       C  0.95529992  0.50470708  0.61618186    -0.05600
C1363       C  0.95353483  0.50200823  0.64894117    -0.20700
C1364       C  0.97785149  0.49856496  0.66677828     0.25000
C1365       C  0.50403401  0.99745667  0.65083843    -0.18300
C1366       C  0.50578997  0.00015804  0.61807130    -0.08200
C1367       C  0.97484610  0.49582181  0.70162537    -0.18500
C1368       C  0.49581400  0.00154195  0.72165971    -0.23300
C1369       C  0.49351936  0.99972289  0.75671321     0.27100
C1370       C  0.51774288  0.00529114  0.77416421    -0.20100
C1371       C  0.51705711  0.00441976  0.80703019    -0.09700
C1372       C  0.50230210  0.51097591  0.82572604    -0.10300
C1373       C  0.96776582  0.49206054  0.80628713    -0.03200
C1374       C  0.96846033  0.49282877  0.77326939    -0.18300
H1375       H  0.93617823  0.50781301  0.60320844     0.10800
H1376       H  0.93305709  0.50290457  0.66044885     0.10800
H1377       H  0.52322329  0.99378109  0.66339761     0.10500
H1378       H  0.52621292  0.99872813  0.60653534     0.11600
H1379       H  0.95426205  0.48992682  0.71061580     0.11700
H1380       H  0.51594960  0.00843683  0.71215251     0.13600
H1381       H  0.53741228  0.01045412  0.76230441     0.10100
H1382       H  0.53622073  0.00896097  0.81952459     0.12200
H1383       H  0.94818788  0.48683327  0.81825813     0.08800
H1384       H  0.94922234  0.48820858  0.76114072     0.11600
C1385       C  0.50731991  0.49202638  0.29395990    -0.03000
C1386       C  0.00711431  0.96665709  0.27658912    -0.05600
C1387       C  0.00781615  0.96687387  0.24364999    -0.20700
C1388       C  0.00885823  0.99229727  0.22704363     0.25000
C1389       C  0.50932731  0.51779211  0.24450270    -0.18300
C1390       C  0.50849677  0.51754030  0.27751207    -0.08200
C1391       C  0.00889200  0.99097890  0.19184294    -0.18500
C1392       C  0.51348432  0.51327289  0.17280419    -0.23300
C1393       C  0.51292300  0.51160479  0.13768777     0.27100
C1394       C  0.50920081  0.53653158  0.12079348    -0.20100
C1395       C  0.50862278  0.53623251  0.08786734    -0.09700
C1396       C  0.99782131  0.49889254  0.06865568    -0.10300
C1397       C  0.01587526  0.98593730  0.08762902    -0.03200
C1398       C  0.01640013  0.98620215  0.12062501    -0.18300
H1399       H  0.00587766  0.94665913  0.28853806     0.10800
H1400       H  0.00740912  0.94698766  0.23106394     0.10800
H1401       H  0.50981521  0.53797533  0.23307882     0.10500
H1402       H  0.50888207  0.53736402  0.29021353     0.11600
H1403       H  0.00475711  0.97055425  0.18138790     0.11700
H1404       H  0.51708927  0.53390127  0.18291856     0.13600
H1405       H  0.50651871  0.55637243  0.13315088     0.10100
H1406       H  0.50552488  0.55589040  0.07573179     0.12200
H1407       H  0.01867888  0.96612131  0.07527629     0.08800
H1408       H  0.02014073  0.96657661  0.13246534     0.11600
C1409       C  0.75943462  0.74490025  0.57158509    -0.03000
C1410       C  0.77310364  0.72274654  0.58670357    -0.05600
C1411       C  0.77433852  0.72198850  0.61956426    -0.20700
C1412       C  0.76144335  0.74299068  0.63805438     0.25000
C1413       C  0.74811982  0.76543529  0.62295293    -0.18300
C1414       C  0.74721712  0.76640231  0.59004111    -0.08200
C1415       C  0.76272891  0.74102846  0.67292040    -0.18500
C1416       C  0.74274192  0.75169275  0.69235939    -0.23300
C1417       C  0.74311734  0.74892142  0.72723082     0.27100
C1418       C  0.71769182  0.75138391  0.74421260    -0.20100
C1419       C  0.71706333  0.74942906  0.77704916    -0.09700
C1420       C  0.74193440  0.74514661  0.79373559    -0.10300
C1421       C  0.76744943  0.74280569  0.77679791    -0.03200
C1422       C  0.76808773  0.74478172  0.74391214    -0.18300
H1423       H  0.78296180  0.70602066  0.57311584     0.10800
H1424       H  0.78500499  0.70466534  0.63060691     0.10800
H1425       H  0.73869048  0.78244643  0.63642601     0.10500
H1426       H  0.73665349  0.78380881  0.57905227     0.11600
H1427       H  0.77967648  0.72874701  0.68257242     0.11700
H1428       H  0.72443460  0.76155595  0.68231220     0.13600
H1429       H  0.69817581  0.75467989  0.73199526     0.10100
H1430       H  0.69703221  0.75102952  0.78939935     0.12200
H1431       H  0.78701961  0.74003742  0.78905099     0.08800
H1432       H  0.78823617  0.74368032  0.73182312     0.11600
C1433       C  0.77415126  0.70088272  0.89336245    -0.03000
C1434       C  0.76276777  0.68116376  0.91448897    -0.05600
C1435       C  0.77987251  0.66024878  0.92705590    -0.20700
C1436       C  0.80868900  0.65924979  0.91938547     0.25000
C1437       C  0.82010739  0.67960948  0.89898240    -0.18300
C1438       C  0.80298388  0.70010911  0.88605199    -0.08200
C1439       C  0.82603969  0.63551174  0.93046044    -0.18500
C1440       C  0.85379764  0.63814437  0.93543052    -0.23300
C1441       C  0.87267020  0.61405614  0.94140920     0.27100
C1442       C  0.89800573  0.61903319  0.95695034    -0.20100
C1443       C  0.91788003  0.59767726  0.95974277    -0.09700
C1444       C  0.91309062  0.57095204  0.94645926    -0.10300
C1445       C  0.88745315  0.56576946  0.93144453    -0.03200
C1446       C  0.86738810  0.58706572  0.92902568    -0.18300
H1447       H  0.74052932  0.68135153  0.92034623     0.10800
H1448       H  0.77055792  0.64464164  0.94250086     0.10800
H1449       H  0.84203862  0.67906002  0.89188222     0.10500
H1450       H  0.81218410  0.71517539  0.86985565     0.11600
H1451       H  0.81572896  0.61539449  0.93419657     0.11700
H1452       H  0.86334578  0.65890542  0.93469735     0.13600
H1453       H  0.90267894  0.63970100  0.96642440     0.10100
H1454       H  0.93742959  0.60241709  0.97140319     0.12200
H1455       H  0.88312974  0.54541740  0.92098709     0.08800
H1456       H  0.84838306  0.58266594  0.91620522     0.11600
C1457       C  0.70591210  0.78101905  0.89740890    -0.03000
C1458       C  0.68406845  0.77226112  0.91767397    -0.05600
C1459       C  0.66529881  0.79197440  0.93068601    -0.20700
C1460       C  0.66808116  0.82063677  0.92347098     0.25000
C1461       C  0.69134630  0.82945493  0.90515516    -0.18300
C1462       C  0.70988002  0.80980635  0.89203018    -0.08200
C1463       C  0.64591656  0.84073253  0.93405676    -0.18500
C1464       C  0.63930611  0.86335974  0.91673176    -0.23300
C1465       C  0.61664300  0.88396886  0.92427285     0.27100
C1466       C  0.61389163  0.90703241  0.90414214    -0.20100
C1467       C  0.59288670  0.92697840  0.90930431    -0.09700
C1468       C  0.57384159  0.92437136  0.93473884    -0.10300
C1469       C  0.57646641  0.90132741  0.95503204    -0.03200
C1470       C  0.59768462  0.88133389  0.94994228    -0.18300
H1471       H  0.68070554  0.75010723  0.92210573     0.10800
H1472       H  0.64783675  0.78470260  0.94514574     0.10800
H1473       H  0.69501418  0.85148216  0.90037379     0.10500
H1474       H  0.72698052  0.81701215  0.87697178     0.11600
H1475       H  0.63395538  0.83563510  0.95518111     0.11700
H1476       H  0.65081773  0.86681965  0.89480795     0.13600
H1477       H  0.62807183  0.90965619  0.88413902     0.10100
H1478       H  0.59144115  0.94435099  0.89308398     0.12200
H1479       H  0.56209842  0.89871763  0.97484151     0.08800
H1480       H  0.59881075  0.86391663  0.96603001     0.11600
loop_ 
_geom_bond_atom_site_label_1 
_geom_bond_atom_site_label_2 
_geom_bond_distance 
_geom_bond_site_symmetry_2 
_ccdc_geom_bond_type 
C1            C2   1.405       .  A
C1            C6   1.406       .  A
C1          C323   1.478       .  S
C2            C3   1.404       .  A
C2            H7   1.084       .  S
C3            C4   1.404       .  A
C3          C347   1.477       .  S
C4            C5   1.403       .  A
C4            H8   1.084       .  S
C5            C6   1.403       .  A
C5          C310   1.487       .  S
C6            H9   1.084       .  S
Zn10         O15   2.021       .  S
Zn10         O19   2.030   1_556  S
Zn10        O766   2.033       .  S
Zn10        O384   1.966       .  S
Zn11         O16   2.034   1_565  S
Zn11         O22   2.043       .  S
Zn11        O388   2.041       .  S
Zn11         O14   1.975       .  S
Zn12         O17   2.012   1_556  S
Zn12         O20   2.010       .  S
Zn12        O763   2.015       .  S
Zn12         O14   1.956   1_545  S
Zn13         O21   2.027       .  S
Zn13         O24   2.010       .  S
Zn13        O395   2.014   1_545  S
Zn13        O754   1.958       .  S
O14        Zn380   1.964       .  S
O14        Zn753   1.956   1_565  S
O15          C27   1.275       .  A
O16          C28   1.276       .  A
O17          C29   1.273   1_545  A
O18        Zn381   2.031       .  S
O18          C27   1.275       .  A
O19         C399   1.275       .  A
O20          C28   1.274       .  A
O21          C30   1.274       .  A
O22         C771   1.277       .  A
O23        Zn752   2.019       .  S
O23          C30   1.274       .  A
O24          C31   1.274       .  A
O25        Zn383   2.011       .  S
O25          C32   1.274       .  A
O26        Zn750   2.032   1_455  S
O26          C32   1.275       .  A
C27         C214   1.486       .  S
C28         C334   1.483       .  S
C29         C286   1.485       .  S
C29         O389   1.275       .  A
C30         C227   1.482       .  S
C31         C262   1.486       .  S
C31         O762   1.276   1_455  A
C32         C358   1.484       .  S
C33          C34   1.410       .  A
C33          C38   1.405       .  A
C33         C238   1.488       .  S
C34          C35   1.413       .  A
C34          H39   1.083   1_554  S
C35          C36   1.410       .  A
C35         C203   1.493       .  S
C36          C37   1.398       .  A
C36          H40   1.083       .  S
C37          C38   1.396       .  A
C37         C190   1.479       .  S
C38          H41   1.084       .  S
C42          C43   1.404       .  A
C42         C417   1.406   1_455  A
C42         C131   1.480       .  S
C43         C414   1.402   1_455  A
C43          H48   1.084       .  S
C44         C413   1.403       .  A
C44         C785   1.403   1_465  A
C44         C275   1.489       .  S
C45          C46   1.408       .  A
C45         C784   1.402   1_545  A
C45          H49   1.084       .  S
C46         C787   1.408   1_545  A
C46         C166   1.483       .  S
C47         C412   1.406       .  A
C47         C786   1.407   1_465  A
C47          H50   1.084   1_455  S
Zn51         O56   2.028       .  S
Zn51         O60   2.032       .  S
Zn51         O67   2.030       .  S
Zn51         O55   1.970       .  S
Zn52         O57   2.025       .  S
Zn52         O59   2.026       .  S
Zn52         O63   2.027       .  S
Zn52         O55   1.961       .  S
Zn53         O58   2.012       .  S
Zn53         O61   2.016       .  S
Zn53         O64   2.031       .  S
Zn53         O55   1.959       .  S
Zn54         O62   2.014       .  S
Zn54         O65   2.020       .  S
Zn54         O66   2.005       .  S
Zn54         O55   1.955       .  S
O56          C68   1.275       .  A
O57          C69   1.275       .  A
O58          C70   1.274       .  A
O59          C68   1.275       .  A
O60          C70   1.276       .  A
O61          C69   1.274       .  A
O62          C71   1.274       .  A
O63          C72   1.275       .  A
O64          C71   1.274       .  A
O65          C72   1.274       .  A
O66          C73   1.273       .  A
O67          C73   1.276       .  A
C68         C142   1.486       .  S
C69         C299   1.481       .  S
C70          C83   1.485       .  S
C71         C155   1.486       .  S
C72         C118   1.485       .  S
C73         C179   1.481       .  S
C74          C79   1.404       .  A
C74         C815   1.406       .  A
C74         C107   1.480       .  S
C75         C814   1.406       .  A
C75         C446   1.411   1_655  A
C75         H450   1.083       .  S
C76          C77   1.411       .  A
C76         C445   1.411   1_455  A
C76          C94   1.496       .  S
C77          C78   1.403   1_455  A
C77          H81   1.082       .  S
C78        C1189   1.400   1_545  A
C78         C251   1.488       .  S
C79        C1188   1.400       .  A
C79          H82   1.084       .  S
H80         C445   1.083       .  S
C83          C84   1.406       .  A
C83          C88   1.407       .  A
C84          C85   1.396       .  A
C84          H97   1.083       .  S
C85          C86   1.402       .  A
C85          H98   1.083       .  S
C86          C87   1.407       .  A
C86          C89   1.485       .  S
C87          C88   1.402       .  A
C87          H99   1.082       .  S
C88         H100   1.083       .  S
C89          C90   1.347       .  D
C89         H101   1.087       .  S
C90          C91   1.485       .  S
C90         H102   1.085       .  S
C91          C92   1.404       .  A
C91          C96   1.403       .  A
C92          C93   1.404       .  A
C92         H103   1.083       .  S
C93          C94   1.410       .  A
C93         H104   1.082       .  S
C94          C95   1.409       .  A
C95          C96   1.394       .  A
C95         H105   1.082       .  S
C96         H106   1.083       .  S
C107        C108   1.402       .  A
C107        C112   1.405       .  A
C108        C109   1.395       .  A
C108        H121   1.083       .  S
C109        C110   1.403       .  A
C109        H122   1.083       .  S
C110        C111   1.410       .  A
C110        C113   1.487       .  S
C111        C112   1.403       .  A
C111        H123   1.082       .  S
C112        H124   1.083       .  S
C113        C114   1.348       .  D
C113        H125   1.085       .  S
C114        C115   1.491       .  S
C114        H126   1.085       .  S
C115        C116   1.404       .  A
C115        C120   1.409       .  A
C116        C117   1.401       .  A
C116        H127   1.083       .  S
C117        C118   1.407       .  A
C117        H128   1.083       .  S
C118        C119   1.405       .  A
C119        C120   1.398       .  A
C119        H129   1.083       .  S
C120        H130   1.081       .  S
C131        C132   1.404       .  A
C131        C136   1.403       .  A
C132        C133   1.403       .  A
C132        H145   1.083   1_455  S
C133        C134   1.406       .  A
C133        H146   1.083       .  S
C134        C135   1.407       .  A
C134        C137   1.488       .  S
C135        C136   1.396       .  A
C135        H147   1.082       .  S
C136        H148   1.084       .  S
C137        C138   1.348       .  D
C137        H149   1.086       .  S
C138        C139   1.488       .  S
C138        H150   1.086       .  S
C139        C140   1.403       .  A
C139        C144   1.408       .  A
C140        C141   1.398       .  A
C140        H151   1.083       .  S
C141        C142   1.406       .  A
C141        H152   1.083       .  S
C142        C143   1.408       .  A
C143        C144   1.402       .  A
C143        H153   1.083       .  S
C144        H154   1.082       .  S
C155        C156   1.405       .  A
C155        C160   1.408       .  A
C156        C157   1.395       .  A
C156        H169   1.083       .  S
C157        C158   1.404       .  A
C157        H170   1.083       .  S
C158        C159   1.409       .  A
C158        C161   1.489       .  S
C159        C160   1.404       .  A
C159        H171   1.081       .  S
C160        H172   1.082       .  S
C161        C162   1.350       .  D
C161        H173   1.084       .  S
C162        C163   1.492       .  S
C162        H174   1.084       .  S
C163        C164   1.406       .  A
C163        C168   1.408       .  A
C164        C165   1.403       .  A
C164        H175   1.083       .  S
C165        C166   1.405       .  A
C165        H176   1.082   1_545  S
C166        C167   1.403       .  A
C167        C168   1.395       .  A
C167        H177   1.083       .  S
C168        H178   1.081       .  S
C179        C180   1.405       .  A
C179        C184   1.406       .  A
C180        C181   1.399       .  A
C180        H193   1.083       .  S
C181        C182   1.403       .  A
C181        H194   1.083       .  S
C182        C183   1.405       .  A
C182        C185   1.483       .  S
C183        C184   1.397       .  A
C183        H195   1.082       .  S
C184        H196   1.083       .  S
C185        C186   1.346       .  D
C185        H197   1.086       .  S
C186        C187   1.482       .  S
C186        H198   1.086       .  S
C187        C188   1.403       .  A
C187        C192   1.407       .  A
C188        C189   1.398       .  A
C188        H199   1.083       .  S
C189        C190   1.404       .  A
C189        H200   1.083       .  S
C190        C191   1.403       .  A
C191        C192   1.398       .  A
C191        H201   1.083       .  S
C192        H202   1.082       .  S
C203        C204   1.409   1_554  A
C203        C208   1.408       .  A
C204        C205   1.403       .  A
C204        H217   1.082       .  S
C205        C206   1.403       .  A
C205        H218   1.083       .  S
C206        C207   1.404   1_556  A
C206        C209   1.486       .  S
C207        C208   1.396       .  A
C207        H219   1.083       .  S
C208        H220   1.083       .  S
C209        C210   1.347       .  D
C209        H221   1.086       .  S
C210        C211   1.485       .  S
C210        H222   1.087   1_556  S
C211        C212   1.402       .  A
C211        C216   1.406       .  A
C212        C213   1.396       .  A
C212        H223   1.083   1_556  S
C213        C214   1.406       .  A
C213        H224   1.083   1_556  S
C214        C215   1.408       .  A
C215        C216   1.403       .  A
C215        H225   1.083       .  S
C216        H226   1.083       .  S
C227        C228   1.407       .  A
C227        C232   1.405       .  A
C228        C229   1.402       .  A
C228        H241   1.083       .  S
C229        C230   1.403       .  A
C229        H242   1.083       .  S
C230        C231   1.406       .  A
C230        C233   1.485       .  S
C231        C232   1.397       .  A
C231        H243   1.083   1_556  S
C232        H244   1.083       .  S
C233        C234   1.345       .  D
C233        H245   1.085       .  S
C234        C235   1.484       .  S
C234        H246   1.087       .  S
C235        C236   1.401   1_556  A
C235        C240   1.409       .  A
C236        C237   1.394       .  A
C236        H247   1.084       .  S
C237        C238   1.406       .  A
C237        H248   1.083       .  S
C238        C239   1.407   1_554  A
C239        C240   1.404       .  A
C239        H249   1.083       .  S
C240        H250   1.082       .  S
C251        C992   1.406       .  A
C251        C626   1.405   1_655  A
C252        C253   1.399       .  A
C252        C991   1.406       .  A
C252        H265   1.082       .  S
C253        C254   1.404   1_545  A
C253        H266   1.084       .  S
C254       C1365   1.409       .  A
C254        C257   1.491       .  S
C255        C256   1.399       .  A
C255       C1364   1.409   1_455  A
C255        H267   1.080       .  S
C256        C621   1.405   1_455  A
C256        H268   1.083       .  S
C257       C1368   1.349   1_565  D
C257        H269   1.083       .  S
C258        C259   1.493       .  S
C258       C1367   1.349       .  D
C258        H270   1.085   1_655  S
C259        C260   1.404   1_655  A
C259       C1374   1.412       .  A
C260        C261   1.396       .  A
C260        H271   1.084       .  S
C261        C632   1.406   1_455  A
C261        H272   1.083       .  S
C262        C631   1.406       .  A
C262       C1003   1.405   1_455  A
C263        C264   1.402       .  A
C263       C1002   1.405       .  A
C263        H273   1.083       .  S
C264       C1369   1.412       .  A
C264        H274   1.079       .  S
C275        C280   1.406   1_565  A
C275       C1386   1.404       .  A
C276        C277   1.398       .  A
C276       C1385   1.404       .  A
C276        H289   1.083       .  S
C277        C278   1.405       .  A
C277        H290   1.083       .  S
C278       C1389   1.411       .  A
C278        C281   1.495       .  S
C279        C280   1.401       .  A
C279       C1388   1.411   1_545  A
C279        H291   1.079       .  S
C280        H292   1.083       .  S
C281       C1392   1.350       .  D
C281        H293   1.084       .  S
C282        C283   1.493       .  S
C282       C1391   1.350   1_545  D
C282        H294   1.083       .  S
C283        C284   1.404       .  A
C283       C1398   1.410   1_545  A
C284        C285   1.398       .  A
C284        H295   1.083       .  S
C285       C1026   1.406       .  A
C285        H296   1.083       .  S
C286       C1025   1.406   1_565  A
C286        C657   1.405       .  A
C287        C288   1.401       .  A
C287        C656   1.406       .  A
C287        H297   1.083       .  S
C288       C1393   1.410       .  A
C288        H298   1.081       .  S
C299        C300   1.405       .  A
C299        C304   1.405       .  A
C300        C301   1.398       .  A
C300        H313   1.083       .  S
C301        C302   1.403       .  A
C301        H314   1.083       .  S
C302        C303   1.408       .  A
C302        C305   1.486       .  S
C303        C304   1.399       .  A
C303        H315   1.082       .  S
C304        H316   1.083       .  S
C305        C306   1.347       .  D
C305        H317   1.085       .  S
C306        C307   1.487       .  S
C306        H318   1.086       .  S
C307        C308   1.403       .  A
C307        C312   1.408       .  A
C308        C309   1.397       .  A
C308        H319   1.084       .  S
C309        C310   1.405       .  A
C309        H320   1.083       .  S
C310        C311   1.406       .  A
C311        C312   1.400       .  A
C311        H321   1.083       .  S
C312        H322   1.082       .  S
C323        C324   1.404       .  A
C323        C328   1.402       .  A
C324        C325   1.402       .  A
C324        H337   1.083       .  S
C325        C326   1.405       .  A
C325        H338   1.084       .  S
C326        C327   1.407       .  A
C326        C329   1.485       .  S
C327        C328   1.395       .  A
C327        H339   1.082       .  S
C328        H340   1.084       .  S
C329        C330   1.346       .  D
C329        H341   1.086       .  S
C330        C331   1.484       .  S
C330        H342   1.087       .  S
C331        C332   1.402       .  A
C331        C336   1.407       .  A
C332        C333   1.398       .  A
C332        H343   1.083       .  S
C333        C334   1.407       .  A
C333        H344   1.083       .  S
C334        C335   1.406       .  A
C335        C336   1.400       .  A
C335        H345   1.083       .  S
C336        H346   1.082       .  S
C347        C348   1.403       .  A
C347        C352   1.402       .  A
C348        C349   1.402       .  A
C348        H361   1.083       .  S
C349        C350   1.405       .  A
C349        H362   1.083       .  S
C350        C351   1.407       .  A
C350        C353   1.488       .  S
C351        C352   1.394       .  A
C351        H363   1.082       .  S
C352        H364   1.083       .  S
C353        C354   1.349       .  D
C353        H365   1.083       .  S
C354        C355   1.489       .  S
C354        H366   1.086       .  S
C355        C356   1.404       .  A
C355        C360   1.410       .  A
C356        C357   1.394       .  A
C356        H367   1.084       .  S
C357        C358   1.404       .  A
C357        H368   1.083       .  S
C358        C359   1.407       .  A
C359        C360   1.403       .  A
C359        H369   1.083       .  S
C360        H370   1.080       .  S
C371        C372   1.407       .  A
C371        C376   1.408       .  A
C371        C693   1.483       .  S
C372        C373   1.404       .  A
C372        H377   1.082       .  S
C373        C374   1.405       .  A
C373        C717   1.482       .  S
C374        C375   1.403       .  A
C374        H378   1.084       .  S
C375        C376   1.403       .  A
C375        C680   1.487       .  S
C376        H379   1.084       .  S
Zn380       O385   2.019       .  S
Zn380       O389   2.032   1_556  S
Zn380      O1136   2.032       .  S
Zn381       O386   2.031       .  S
Zn381       O392   2.039       .  S
Zn381       O384   1.973       .  S
Zn382       O387   2.017   1_556  S
Zn382       O390   2.017       .  S
Zn382      O1133   2.019       .  S
Zn382       O384   1.957       .  S
Zn383       O391   2.027       .  S
Zn383       O394   2.003       .  S
Zn383      O1124   1.956   1_455  S
O384      Zn1123   1.958       .  S
O385        C397   1.276       .  A
O386        C398   1.276       .  A
O387        C399   1.274       .  A
O388        C397   1.277       .  A
O390        C398   1.275       .  A
O391        C400   1.274       .  A
O392       C1141   1.276       .  A
O393      Zn1122   2.015   1_455  S
O393        C400   1.273       .  A
O394        C401   1.273   1_455  A
O395        C402   1.274       .  A
O396      Zn1120   2.033       .  S
O396        C402   1.276       .  A
C397        C584   1.488       .  S
C398        C704   1.483       .  S
C399        C656   1.486       .  S
C400        C597   1.483       .  S
C401        C632   1.485       .  S
C401       O1132   1.277       .  A
C402        C728   1.485       .  S
C403        C404   1.410       .  A
C403        C408   1.406       .  A
C403        C608   1.488       .  S
C404        C405   1.412       .  A
C404        H409   1.083   1_554  S
C405        C406   1.409       .  A
C405        C573   1.492       .  S
C406        C407   1.400       .  A
C406        H410   1.083       .  S
C407        C408   1.398       .  A
C407        C560   1.483       .  S
C408        H411   1.084       .  S
C412        C413   1.405       .  A
C412        C501   1.480       .  S
C413        H418   1.084       .  S
C414       C1155   1.402       .  A
C414        C645   1.485   1_655  S
C415       C1154   1.403       .  A
C415        C416   1.408       .  A
C415        H419   1.083       .  S
C416       C1157   1.407       .  A
C416        C536   1.485       .  S
C417       C1156   1.408       .  A
C417        H420   1.084       .  S
Zn421       O426   2.025       .  S
Zn421       O430   2.033       .  S
Zn421       O437   2.031       .  S
Zn421       O425   1.970       .  S
Zn422       O427   2.029       .  S
Zn422       O429   2.023       .  S
Zn422       O433   2.024       .  S
Zn422       O425   1.962       .  S
Zn423       O428   2.018       .  S
Zn423       O431   2.018       .  S
Zn423       O434   2.029       .  S
Zn423       O425   1.963       .  S
Zn424       O432   2.008       .  S
Zn424       O435   2.025       .  S
Zn424       O436   2.010       .  S
Zn424       O425   1.959       .  S
O426        C438   1.275       .  A
O427        C439   1.276       .  A
O428        C440   1.275       .  A
O429        C438   1.275       .  A
O430        C440   1.276       .  A
O431        C439   1.275       .  A
O432        C441   1.273       .  A
O433        C442   1.275       .  A
O434        C441   1.274       .  A
O435        C442   1.274       .  A
O436        C443   1.273       .  A
O437        C443   1.276       .  A
C438        C512   1.485       .  S
C439        C669   1.484       .  S
C440        C453   1.486       .  S
C441        C525   1.484       .  S
C442        C488   1.485       .  S
C443        C549   1.481       .  S
C444       C1185   1.405   1_565  A
C444        C449   1.403       .  A
C444        C477   1.479       .  S
C445       C1184   1.406   1_545  A
C446        C447   1.411       .  A
C446        C464   1.495       .  S
C447        C448   1.404   1_455  A
C447        H451   1.082       .  S
C448        C819   1.401       .  A
C448        C621   1.488       .  S
C449        C818   1.401   1_565  A
C449        H452   1.084       .  S
C453        C454   1.406       .  A
C453        C458   1.407       .  A
C454        C455   1.397       .  A
C454        H467   1.083       .  S
C455        C456   1.403       .  A
C455        H468   1.083       .  S
C456        C457   1.407       .  A
C456        C459   1.486       .  S
C457        C458   1.402       .  A
C457        H469   1.082       .  S
C458        H470   1.083       .  S
C459        C460   1.348       .  D
C459        H471   1.087       .  S
C460        C461   1.486       .  S
C460        H472   1.086       .  S
C461        C462   1.404       .  A
C461        C466   1.404       .  A
C462        C463   1.403       .  A
C462        H473   1.083       .  S
C463        C464   1.409       .  A
C463        H474   1.083       .  S
C464        C465   1.408       .  A
C465        C466   1.395       .  A
C465        H475   1.082       .  S
C466        H476   1.083       .  S
C477        C478   1.402       .  A
C477        C482   1.404       .  A
C478        C479   1.395       .  A
C478        H491   1.083       .  S
C479        C480   1.404       .  A
C479        H492   1.083       .  S
C480        C481   1.410       .  A
C480        C483   1.487       .  S
C481        C482   1.403       .  A
C481        H493   1.081       .  S
C482        H494   1.083       .  S
C483        C484   1.349       .  D
C483        H495   1.085       .  S
C484        C485   1.491       .  S
C484        H496   1.085       .  S
C485        C486   1.405       .  A
C485        C490   1.408       .  A
C486        C487   1.403       .  A
C486        H497   1.083       .  S
C487        C488   1.408       .  A
C487        H498   1.083       .  S
C488        C489   1.405       .  A
C489        C490   1.397       .  A
C489        H499   1.083       .  S
C490        H500   1.081       .  S
C501        C502   1.404       .  A
C501        C506   1.403       .  A
C502        C503   1.402       .  A
C502        H515   1.083       .  S
C503        C504   1.406       .  A
C503        H516   1.083       .  S
C504        C505   1.407       .  A
C504        C507   1.488       .  S
C505        C506   1.396       .  A
C505        H517   1.082       .  S
C506        H518   1.084       .  S
C507        C508   1.348       .  D
C507        H519   1.085       .  S
C508        C509   1.488       .  S
C508        H520   1.086       .  S
C509        C510   1.404       .  A
C509        C514   1.408       .  A
C510        C511   1.398       .  A
C510        H521   1.083       .  S
C511        C512   1.406       .  A
C511        H522   1.083       .  S
C512        C513   1.407       .  A
C513        C514   1.401       .  A
C513        H523   1.083       .  S
C514        H524   1.082       .  S
C525        C526   1.405       .  A
C525        C530   1.408       .  A
C526        C527   1.394       .  A
C526        H539   1.083       .  S
C527        C528   1.403       .  A
C527        H540   1.083       .  S
C528        C529   1.408       .  A
C528        C531   1.486       .  S
C529        C530   1.404       .  A
C529        H541   1.081       .  S
C530        H542   1.082       .  S
C531        C532   1.350       .  D
C531        H543   1.084       .  S
C532        C533   1.491       .  S
C532        H544   1.084       .  S
C533        C534   1.406       .  A
C533        C538   1.408       .  A
C534        C535   1.404       .  A
C534        H545   1.083       .  S
C535        C536   1.406       .  A
C535        H546   1.082       .  S
C536        C537   1.403       .  A
C537        C538   1.393       .  A
C537        H547   1.083       .  S
C538        H548   1.082       .  S
C549        C550   1.405       .  A
C549        C554   1.406       .  A
C550        C551   1.400       .  A
C550        H563   1.083       .  S
C551        C552   1.404       .  A
C551        H564   1.083       .  S
C552        C553   1.406       .  A
C552        C555   1.485       .  S
C553        C554   1.398       .  A
C553        H565   1.082       .  S
C554        H566   1.083       .  S
C555        C556   1.347       .  D
C555        H567   1.086       .  S
C556        C557   1.484       .  S
C556        H568   1.086       .  S
C557        C558   1.403       .  A
C557        C562   1.407       .  A
C558        C559   1.399       .  A
C558        H569   1.083       .  S
C559        C560   1.405       .  A
C559        H570   1.083       .  S
C560        C561   1.405       .  A
C561        C562   1.399       .  A
C561        H571   1.083       .  S
C562        H572   1.082       .  S
C573        C574   1.408   1_554  A
C573        C578   1.407       .  A
C574        C575   1.405       .  A
C574        H587   1.082       .  S
C575        C576   1.405       .  A
C575        H588   1.083       .  S
C576        C577   1.404   1_556  A
C576        C579   1.489       .  S
C577        C578   1.395       .  A
C577        H589   1.083       .  S
C578        H590   1.083       .  S
C579        C580   1.348       .  D
C579        H591   1.086       .  S
C580        C581   1.486       .  S
C580        H592   1.087   1_556  S
C581        C582   1.402       .  A
C581        C586   1.407       .  A
C582        C583   1.396       .  A
C582        H593   1.083   1_556  S
C583        C584   1.406       .  A
C583        H594   1.083       .  S
C584        C585   1.409       .  A
C585        C586   1.406       .  A
C585        H595   1.083       .  S
C586        H596   1.083       .  S
C597        C598   1.407       .  A
C597        C602   1.406       .  A
C598        C599   1.402       .  A
C598        H611   1.083       .  S
C599        C600   1.403       .  A
C599        H612   1.083       .  S
C600        C601   1.405       .  A
C600        C603   1.484       .  S
C601        C602   1.397       .  A
C601        H613   1.083       .  S
C602        H614   1.083       .  S
C603        C604   1.344       .  D
C603        H615   1.086       .  S
C604        C605   1.483       .  S
C604        H616   1.087   1_556  S
C605        C606   1.400   1_556  A
C605        C610   1.408       .  A
C606        C607   1.394       .  A
C606        H617   1.084       .  S
C607        C608   1.406       .  A
C607        H618   1.083       .  S
C608        C609   1.407   1_554  A
C609        C610   1.405       .  A
C609        H619   1.083       .  S
C610        H620   1.082       .  S
C621       C1362   1.406       .  A
C622       C1361   1.406       .  A
C622        C623   1.399       .  A
C622        H635   1.082       .  S
C623        C624   1.404       .  A
C623        H636   1.084       .  S
C624        C995   1.409       .  A
C624        C627   1.491       .  S
C625        C994   1.409   1_455  A
C625        C626   1.399       .  A
C625        H637   1.080       .  S
C626        H638   1.083       .  S
C627        C998   1.350       .  D
C627        H639   1.082       .  S
C628        C629   1.494       .  S
C628        C997   1.350   1_455  D
C628        H640   1.085       .  S
C629        C630   1.404       .  A
C629       C1004   1.411   1_455  A
C630        C631   1.397       .  A
C630        H641   1.084       .  S
C631        H642   1.083       .  S
C632       C1373   1.405       .  A
C633       C1372   1.405       .  A
C633        C634   1.402       .  A
C633        H643   1.083       .  S
C634        C999   1.411       .  A
C634        H644   1.079       .  S
C645       C1016   1.404   1_455  A
C645        C650   1.405       .  A
C646       C1015   1.404       .  A
C646        C647   1.397       .  A
C646        H659   1.083       .  S
C647        C648   1.404       .  A
C647        H660   1.083       .  S
C648       C1019   1.411   1_565  A
C648        C651   1.492       .  S
C649       C1018   1.411       .  A
C649        C650   1.401       .  A
C649        H661   1.080       .  S
C650        H662   1.083       .  S
C651       C1022   1.349   1_565  D
C651        H663   1.083       .  S
C652        C653   1.494   1_455  S
C652       C1021   1.349       .  D
C652        H664   1.084   1_455  S
C653        C654   1.405       .  A
C653       C1028   1.411   1_655  A
C654        C655   1.398       .  A
C654        H665   1.083       .  S
C655       C1396   1.406       .  A
C655        H666   1.083       .  S
C656       C1395   1.406       .  A
C657        C658   1.401       .  A
C657        H667   1.083       .  S
C658       C1023   1.411   1_565  A
C658        H668   1.079       .  S
C669        C670   1.406       .  A
C669        C674   1.406       .  A
C670        C671   1.398       .  A
C670        H683   1.083       .  S
C671        C672   1.402       .  A
C671        H684   1.083       .  S
C672        C673   1.407       .  A
C672        C675   1.486       .  S
C673        C674   1.400       .  A
C673        H685   1.082       .  S
C674        H686   1.083       .  S
C675        C676   1.346       .  D
C675        H687   1.086       .  S
C676        C677   1.487       .  S
C676        H688   1.086       .  S
C677        C678   1.403       .  A
C677        C682   1.408       .  A
C678        C679   1.397       .  A
C678        H689   1.084       .  S
C679        C680   1.406       .  A
C679        H690   1.083       .  S
C680        C681   1.406       .  A
C681        C682   1.401       .  A
C681        H691   1.083       .  S
C682        H692   1.082       .  S
C693        C694   1.406       .  A
C693        C698   1.403       .  A
C694        C695   1.403       .  A
C694        H707   1.083       .  S
C695        C696   1.405       .  A
C695        H708   1.083       .  S
C696        C697   1.406       .  A
C696        C699   1.486       .  S
C697        C698   1.395       .  A
C697        H709   1.082       .  S
C698        H710   1.083       .  S
C699        C700   1.346       .  D
C699        H711   1.086       .  S
C700        C701   1.485       .  S
C700        H712   1.087       .  S
C701        C702   1.403       .  A
C701        C706   1.408       .  A
C702        C703   1.397       .  A
C702        H713   1.083       .  S
C703        C704   1.405       .  A
C703        H714   1.083       .  S
C704        C705   1.406       .  A
C705        C706   1.401       .  A
C705        H715   1.083       .  S
C706        H716   1.082       .  S
C717        C718   1.405       .  A
C717        C722   1.403       .  A
C718        C719   1.403       .  A
C718        H731   1.084       .  S
C719        C720   1.407       .  A
C719        H732   1.083       .  S
C720        C721   1.408       .  A
C720        C723   1.491       .  S
C721        C722   1.394       .  A
C721        H733   1.082       .  S
C722        H734   1.083       .  S
C723        C724   1.351       .  D
C723        H735   1.083       .  S
C724        C725   1.491       .  S
C724        H736   1.085       .  S
C725        C726   1.404       .  A
C725        C730   1.409       .  A
C726        C727   1.395       .  A
C726        H737   1.084       .  S
C727        C728   1.404       .  A
C727        H738   1.083       .  S
C728        C729   1.407       .  A
C729        C730   1.404       .  A
C729        H739   1.083       .  S
C730        H740   1.080       .  S
C741        C742   1.406       .  A
C741        C746   1.408       .  A
C741       C1063   1.482       .  S
C742        C743   1.404       .  A
C742        H747   1.082       .  S
C743        C744   1.405       .  A
C743       C1087   1.481       .  S
C744        C745   1.403       .  A
C744        H748   1.084       .  S
C745        C746   1.403       .  A
C745       C1050   1.487       .  S
C746        H749   1.084       .  S
Zn750       O755   2.020       .  S
Zn750       O759   2.032   1_656  S
Zn750      O1124   1.964       .  S
Zn751       O756   2.031       .  S
Zn751      O1128   2.031   1_545  S
Zn751       O762   2.039       .  S
Zn751       O754   1.973   1_655  S
Zn752       O757   2.017   1_556  S
Zn752       O760   2.016   1_455  S
Zn752       O754   1.957       .  S
Zn753       O761   2.027       .  S
Zn753       O764   2.003       .  S
Zn753      O1135   2.012   1_545  S
O754      Zn1120   1.966   1_545  S
O755        C767   1.276       .  A
O756        C768   1.276       .  A
O757        C769   1.274       .  A
O758      Zn1121   2.041       .  S
O758        C767   1.277       .  A
O759       C1139   1.275   1_455  A
O760        C768   1.274       .  A
O761        C770   1.274       .  A
O763        C770   1.273       .  A
O764        C771   1.273   1_545  A
O765      Zn1123   2.014       .  S
O765        C772   1.275       .  A
O766        C772   1.276       .  A
C767        C954   1.488       .  S
C768       C1074   1.483       .  S
C769       C1026   1.486       .  S
C769       O1129   1.275   1_545  A
C770        C967   1.483       .  S
C771       C1002   1.485       .  S
C772       C1098   1.485       .  S
C773        C774   1.410       .  A
C773        C778   1.406       .  A
C773        C978   1.488       .  S
C774        C775   1.412       .  A
C774        H779   1.083   1_554  S
C775        C776   1.409       .  A
C775        C943   1.492       .  S
C776        C777   1.400       .  A
C776        H780   1.083       .  S
C777        C778   1.398       .  A
C777        C930   1.483       .  S
C778        H781   1.084       .  S
C782        C783   1.405       .  A
C782       C1157   1.406       .  A
C782        C871   1.480       .  S
C783       C1154   1.403       .  A
C783        H788   1.084       .  S
C784       C1153   1.402       .  A
C784       C1015   1.485       .  S
C785        C786   1.408       .  A
C785        H789   1.083       .  S
C786        C906   1.485       .  S
C787       C1152   1.406       .  A
C787        H790   1.084       .  S
Zn791       O796   2.026       .  S
Zn791       O800   2.033       .  S
Zn791       O807   2.031       .  S
Zn791       O795   1.969       .  S
Zn792       O797   2.029       .  S
Zn792       O799   2.024       .  S
Zn792       O803   2.024       .  S
Zn792       O795   1.961       .  S
Zn793       O798   2.018       .  S
Zn793       O801   2.019       .  S
Zn793       O804   2.030       .  S
Zn793       O795   1.963       .  S
Zn794       O802   2.008       .  S
Zn794       O805   2.025       .  S
Zn794       O806   2.010       .  S
Zn794       O795   1.959       .  S
O796        C808   1.275       .  A
O797        C809   1.276       .  A
O798        C810   1.275       .  A
O799        C808   1.275       .  A
O800        C810   1.276       .  A
O801        C809   1.275       .  A
O802        C811   1.273       .  A
O803        C812   1.275       .  A
O804        C811   1.274       .  A
O805        C812   1.274       .  A
O806        C813   1.273       .  A
O807        C813   1.276       .  A
C808        C882   1.485       .  S
C809       C1039   1.484       .  S
C810        C823   1.486       .  S
C811        C895   1.484       .  S
C812        C858   1.485       .  S
C813        C919   1.481       .  S
C814        C819   1.403       .  A
C814        C847   1.479       .  S
C815       C1186   1.411       .  A
C815       H1190   1.083       .  S
C816       C1185   1.411       .  A
C816        C817   1.411       .  A
C816        C834   1.494       .  S
C817        C818   1.404       .  A
C817        H821   1.082       .  S
C818        C991   1.488       .  S
C819        H822   1.084       .  S
H820       C1185   1.083       .  S
C823        C824   1.406       .  A
C823        C828   1.407       .  A
C824        C825   1.397       .  A
C824        H837   1.083       .  S
C825        C826   1.403       .  A
C825        H838   1.083       .  S
C826        C827   1.407       .  A
C826        C829   1.486       .  S
C827        C828   1.402       .  A
C827        H839   1.082       .  S
C828        H840   1.083       .  S
C829        C830   1.347       .  D
C829        H841   1.087       .  S
C830        C831   1.486       .  S
C830        H842   1.085       .  S
C831        C832   1.403       .  A
C831        C836   1.404       .  A
C832        C833   1.403       .  A
C832        H843   1.083       .  S
C833        C834   1.409       .  A
C833        H844   1.083       .  S
C834        C835   1.408       .  A
C835        C836   1.395       .  A
C835        H845   1.082       .  S
C836        H846   1.083       .  S
C847        C848   1.402       .  A
C847        C852   1.404       .  A
C848        C849   1.395       .  A
C848        H861   1.083       .  S
C849        C850   1.404       .  A
C849        H862   1.083       .  S
C850        C851   1.410       .  A
C850        C853   1.487       .  S
C851        C852   1.403       .  A
C851        H863   1.081       .  S
C852        H864   1.083       .  S
C853        C854   1.349       .  D
C853        H865   1.085       .  S
C854        C855   1.491       .  S
C854        H866   1.085       .  S
C855        C856   1.405       .  A
C855        C860   1.408       .  A
C856        C857   1.403       .  A
C856        H867   1.083       .  S
C857        C858   1.408       .  A
C857        H868   1.083       .  S
C858        C859   1.405       .  A
C859        C860   1.397       .  A
C859        H869   1.083       .  S
C860        H870   1.081       .  S
C871        C872   1.404       .  A
C871        C876   1.403       .  A
C872        C873   1.403       .  A
C872        H885   1.083       .  S
C873        C874   1.406       .  A
C873        H886   1.083       .  S
C874        C875   1.407       .  A
C874        C877   1.488       .  S
C875        C876   1.396       .  A
C875        H887   1.082       .  S
C876        H888   1.083       .  S
C877        C878   1.348       .  D
C877        H889   1.085       .  S
C878        C879   1.488       .  S
C878        H890   1.086       .  S
C879        C880   1.404       .  A
C879        C884   1.408       .  A
C880        C881   1.399       .  A
C880        H891   1.083       .  S
C881        C882   1.406       .  A
C881        H892   1.083       .  S
C882        C883   1.407       .  A
C883        C884   1.401       .  A
C883        H893   1.083       .  S
C884        H894   1.082       .  S
C895        C896   1.405       .  A
C895        C900   1.408       .  A
C896        C897   1.394       .  A
C896        H909   1.083       .  S
C897        C898   1.403       .  A
C897        H910   1.083       .  S
C898        C899   1.408       .  A
C898        C901   1.486       .  S
C899        C900   1.404       .  A
C899        H911   1.081       .  S
C900        H912   1.082       .  S
C901        C902   1.350       .  D
C901        H913   1.084       .  S
C902        C903   1.491       .  S
C902        H914   1.084       .  S
C903        C904   1.406       .  A
C903        C908   1.408       .  A
C904        C905   1.404       .  A
C904        H915   1.083       .  S
C905        C906   1.406       .  A
C905        H916   1.082       .  S
C906        C907   1.403       .  A
C907        C908   1.393       .  A
C907        H917   1.083       .  S
C908        H918   1.082       .  S
C919        C920   1.405       .  A
C919        C924   1.406       .  A
C920        C921   1.400       .  A
C920        H933   1.083       .  S
C921        C922   1.404       .  A
C921        H934   1.083       .  S
C922        C923   1.406       .  A
C922        C925   1.485       .  S
C923        C924   1.398       .  A
C923        H935   1.082       .  S
C924        H936   1.083       .  S
C925        C926   1.347       .  D
C925        H937   1.086       .  S
C926        C927   1.484       .  S
C926        H938   1.086       .  S
C927        C928   1.403       .  A
C927        C932   1.407       .  A
C928        C929   1.399       .  A
C928        H939   1.083       .  S
C929        C930   1.405       .  A
C929        H940   1.083       .  S
C930        C931   1.405       .  A
C931        C932   1.399       .  A
C931        H941   1.083       .  S
C932        H942   1.082       .  S
C943        C944   1.408   1_554  A
C943        C948   1.407       .  A
C944        C945   1.405       .  A
C944        H957   1.082       .  S
C945        C946   1.405       .  A
C945        H958   1.083       .  S
C946        C947   1.404   1_556  A
C946        C949   1.489       .  S
C947        C948   1.395       .  A
C947        H959   1.083       .  S
C948        H960   1.083       .  S
C949        C950   1.348       .  D
C949        H961   1.086       .  S
C950        C951   1.486       .  S
C950        H962   1.087   1_556  S
C951        C952   1.402       .  A
C951        C956   1.407       .  A
C952        C953   1.396       .  A
C952        H963   1.083   1_556  S
C953        C954   1.406       .  A
C953        H964   1.083       .  S
C954        C955   1.409       .  A
C955        C956   1.406       .  A
C955        H965   1.083       .  S
C956        H966   1.083       .  S
C967        C968   1.407       .  A
C967        C972   1.406       .  A
C968        C969   1.402       .  A
C968        H981   1.083       .  S
C969        C970   1.403       .  A
C969        H982   1.083       .  S
C970        C971   1.405       .  A
C970        C973   1.484       .  S
C971        C972   1.397       .  A
C971        H983   1.083       .  S
C972        H984   1.083       .  S
C973        C974   1.344       .  D
C973        H985   1.086       .  S
C974        C975   1.483       .  S
C974        H986   1.087   1_556  S
C975        C976   1.401   1_556  A
C975        C980   1.408       .  A
C976        C977   1.394       .  A
C976        H987   1.083       .  S
C977        C978   1.406       .  A
C977        H988   1.083       .  S
C978        C979   1.407   1_554  A
C979        C980   1.405       .  A
C979        H989   1.083       .  S
C980        H990   1.082       .  S
C991       C1366   1.405       .  A
C992        C993   1.399       .  A
C992       H1005   1.082       .  S
C993        C994   1.404       .  A
C993       H1006   1.084       .  S
C994        C997   1.491       .  S
C995        C996   1.399       .  A
C995       H1007   1.080       .  S
C996       C1361   1.405       .  A
C996       H1008   1.083       .  S
C997       H1009   1.082   1_545  S
C998        C999   1.494       .  S
C998       H1010   1.085       .  S
C999       C1000   1.404       .  A
C1000      C1001   1.397       .  A
C1000      H1011   1.084       .  S
C1001      C1372   1.406       .  A
C1001      H1012   1.083       .  S
C1002      C1371   1.406   1_565  A
C1003      C1004   1.402       .  A
C1003      H1013   1.083       .  S
C1004      H1014   1.079       .  S
C1015      C1020   1.405   1_565  A
C1016      C1017   1.397       .  A
C1016      H1029   1.083       .  S
C1017      C1018   1.404   1_655  A
C1017      H1030   1.083       .  S
C1018      C1021   1.492       .  S
C1019      C1020   1.401       .  A
C1019      H1031   1.080       .  S
C1020      H1032   1.083       .  S
C1021      H1033   1.083       .  S
C1022      C1023   1.494       .  S
C1022      H1034   1.084       .  S
C1023      C1024   1.404       .  A
C1024      C1025   1.398       .  A
C1024      H1035   1.083       .  S
C1025      H1036   1.083       .  S
C1026      C1397   1.406   1_545  A
C1027      C1396   1.405   1_455  A
C1027      C1028   1.401       .  A
C1027      H1037   1.083       .  S
C1028      H1038   1.079       .  S
C1039      C1040   1.406       .  A
C1039      C1044   1.406       .  A
C1040      C1041   1.398       .  A
C1040      H1053   1.083       .  S
C1041      C1042   1.402       .  A
C1041      H1054   1.083       .  S
C1042      C1043   1.407       .  A
C1042      C1045   1.486       .  S
C1043      C1044   1.400       .  A
C1043      H1055   1.082       .  S
C1044      H1056   1.083       .  S
C1045      C1046   1.346       .  D
C1045      H1057   1.086       .  S
C1046      C1047   1.487       .  S
C1046      H1058   1.086       .  S
C1047      C1048   1.403       .  A
C1047      C1052   1.408       .  A
C1048      C1049   1.397       .  A
C1048      H1059   1.083       .  S
C1049      C1050   1.406       .  A
C1049      H1060   1.083       .  S
C1050      C1051   1.406       .  A
C1051      C1052   1.401       .  A
C1051      H1061   1.083       .  S
C1052      H1062   1.082       .  S
C1063      C1064   1.406       .  A
C1063      C1068   1.403       .  A
C1064      C1065   1.402       .  A
C1064      H1077   1.083       .  S
C1065      C1066   1.405       .  A
C1065      H1078   1.083       .  S
C1066      C1067   1.406       .  A
C1066      C1069   1.486       .  S
C1067      C1068   1.395       .  A
C1067      H1079   1.082       .  S
C1068      H1080   1.083       .  S
C1069      C1070   1.346       .  D
C1069      H1081   1.086       .  S
C1070      C1071   1.485       .  S
C1070      H1082   1.087       .  S
C1071      C1072   1.403       .  A
C1071      C1076   1.408       .  A
C1072      C1073   1.397       .  A
C1072      H1083   1.083       .  S
C1073      C1074   1.405       .  A
C1073      H1084   1.083       .  S
C1074      C1075   1.406       .  A
C1075      C1076   1.401       .  A
C1075      H1085   1.083       .  S
C1076      H1086   1.082       .  S
C1087      C1088   1.405       .  A
C1087      C1092   1.403       .  A
C1088      C1089   1.403       .  A
C1088      H1101   1.084       .  S
C1089      C1090   1.407       .  A
C1089      H1102   1.083       .  S
C1090      C1091   1.408       .  A
C1090      C1093   1.491       .  S
C1091      C1092   1.394       .  A
C1091      H1103   1.082       .  S
C1092      H1104   1.083       .  S
C1093      C1094   1.351       .  D
C1093      H1105   1.083       .  S
C1094      C1095   1.491       .  S
C1094      H1106   1.085       .  S
C1095      C1096   1.404       .  A
C1095      C1100   1.409       .  A
C1096      C1097   1.395       .  A
C1096      H1107   1.084       .  S
C1097      C1098   1.404       .  A
C1097      H1108   1.083       .  S
C1098      C1099   1.407       .  A
C1099      C1100   1.404       .  A
C1099      H1109   1.083       .  S
C1100      H1110   1.080       .  S
C1111      C1112   1.405       .  A
C1111      C1116   1.406       .  A
C1111      C1433   1.479       .  S
C1112      C1113   1.404       .  A
C1112      H1117   1.084       .  S
C1113      C1114   1.404       .  A
C1113      C1457   1.477       .  S
C1114      C1115   1.402       .  A
C1114      H1118   1.084       .  S
C1115      C1116   1.403       .  A
C1115      C1420   1.487       .  S
C1116      H1119   1.084       .  S
Zn1120     O1125   2.021   1_455  S
Zn1120     O1129   2.030   1_556  S
Zn1121     O1126   2.035       .  S
Zn1121     O1132   2.043       .  S
Zn1121     O1124   1.975       .  S
Zn1122     O1127   2.012   1_556  S
Zn1122     O1130   2.010       .  S
Zn1122     O1124   1.956       .  S
Zn1123     O1131   2.028       .  S
Zn1123     O1134   2.010       .  S
O1125      C1137   1.275       .  A
O1126      C1138   1.276       .  A
O1127      C1139   1.273       .  A
O1128      C1137   1.275       .  A
O1130      C1138   1.274       .  A
O1131      C1140   1.274       .  A
O1133      C1140   1.274       .  A
O1134      C1141   1.274       .  A
O1135      C1142   1.274       .  A
O1136      C1142   1.275       .  A
C1137      C1324   1.486       .  S
C1138      C1444   1.483       .  S
C1139      C1396   1.485       .  S
C1140      C1337   1.482       .  S
C1141      C1372   1.486       .  S
C1142      C1468   1.484       .  S
C1143      C1144   1.410       .  A
C1143      C1148   1.405       .  A
C1143      C1348   1.488       .  S
C1144      C1145   1.413       .  A
C1144      H1149   1.083   1_554  S
C1145      C1146   1.410       .  A
C1145      C1313   1.493       .  S
C1146      C1147   1.398       .  A
C1146      H1150   1.083       .  S
C1147      C1148   1.396       .  A
C1147      C1300   1.479       .  S
C1148      H1151   1.084       .  S
C1152      C1153   1.404       .  A
C1152      C1241   1.480       .  S
C1153      H1158   1.084       .  S
C1154      C1385   1.489       .  S
C1155      C1156   1.408       .  A
C1155      H1159   1.084       .  S
C1156      C1276   1.484       .  S
C1157      H1160   1.084       .  S
Zn1161     O1166   2.028       .  S
Zn1161     O1170   2.032       .  S
Zn1161     O1177   2.030       .  S
Zn1161     O1165   1.970       .  S
Zn1162     O1167   2.025       .  S
Zn1162     O1169   2.026       .  S
Zn1162     O1173   2.026       .  S
Zn1162     O1165   1.961       .  S
Zn1163     O1168   2.012       .  S
Zn1163     O1171   2.016       .  S
Zn1163     O1174   2.031       .  S
Zn1163     O1165   1.959       .  S
Zn1164     O1172   2.014       .  S
Zn1164     O1175   2.020       .  S
Zn1164     O1176   2.004       .  S
Zn1164     O1165   1.955       .  S
O1166      C1178   1.275       .  A
O1167      C1179   1.275       .  A
O1168      C1180   1.274       .  A
O1169      C1178   1.275       .  A
O1170      C1180   1.276       .  A
O1171      C1179   1.274       .  A
O1172      C1181   1.274       .  A
O1173      C1182   1.275       .  A
O1174      C1181   1.274       .  A
O1175      C1182   1.274       .  A
O1176      C1183   1.273       .  A
O1177      C1183   1.276       .  A
C1178      C1252   1.486       .  S
C1179      C1409   1.481       .  S
C1180      C1193   1.485       .  S
C1181      C1265   1.486       .  S
C1182      C1228   1.485       .  S
C1183      C1289   1.480       .  S
C1184      C1189   1.404       .  A
C1184      C1217   1.480       .  S
C1186      C1187   1.411       .  A
C1186      C1204   1.496       .  S
C1187      C1188   1.403       .  A
C1187      H1191   1.082       .  S
C1188      C1361   1.488       .  S
C1189      H1192   1.084       .  S
C1193      C1194   1.406       .  A
C1193      C1198   1.407       .  A
C1194      C1195   1.395       .  A
C1194      H1207   1.083       .  S
C1195      C1196   1.402       .  A
C1195      H1208   1.083       .  S
C1196      C1197   1.407       .  A
C1196      C1199   1.485       .  S
C1197      C1198   1.403       .  A
C1197      H1209   1.082       .  S
C1198      H1210   1.083       .  S
C1199      C1200   1.347       .  D
C1199      H1211   1.087       .  S
C1200      C1201   1.486       .  S
C1200      H1212   1.085       .  S
C1201      C1202   1.404       .  A
C1201      C1206   1.403       .  A
C1202      C1203   1.404       .  A
C1202      H1213   1.083       .  S
C1203      C1204   1.410       .  A
C1203      H1214   1.082       .  S
C1204      C1205   1.408       .  A
C1205      C1206   1.394       .  A
C1205      H1215   1.082       .  S
C1206      H1216   1.083       .  S
C1217      C1218   1.402       .  A
C1217      C1222   1.405       .  A
C1218      C1219   1.395       .  A
C1218      H1231   1.083       .  S
C1219      C1220   1.403       .  A
C1219      H1232   1.083       .  S
C1220      C1221   1.410       .  A
C1220      C1223   1.487       .  S
C1221      C1222   1.403       .  A
C1221      H1233   1.082       .  S
C1222      H1234   1.083       .  S
C1223      C1224   1.348       .  D
C1223      H1235   1.085       .  S
C1224      C1225   1.491       .  S
C1224      H1236   1.085       .  S
C1225      C1226   1.404       .  A
C1225      C1230   1.409       .  A
C1226      C1227   1.401       .  A
C1226      H1237   1.083       .  S
C1227      C1228   1.407       .  A
C1227      H1238   1.083       .  S
C1228      C1229   1.405       .  A
C1229      C1230   1.398       .  A
C1229      H1239   1.083       .  S
C1230      H1240   1.081       .  S
C1241      C1242   1.404       .  A
C1241      C1246   1.403       .  A
C1242      C1243   1.403       .  A
C1242      H1255   1.083       .  S
C1243      C1244   1.406       .  A
C1243      H1256   1.083       .  S
C1244      C1245   1.407       .  A
C1244      C1247   1.488       .  S
C1245      C1246   1.396       .  A
C1245      H1257   1.082       .  S
C1246      H1258   1.084       .  S
C1247      C1248   1.348       .  D
C1247      H1259   1.086       .  S
C1248      C1249   1.487       .  S
C1248      H1260   1.086       .  S
C1249      C1250   1.403       .  A
C1249      C1254   1.408       .  A
C1250      C1251   1.399       .  A
C1250      H1261   1.083       .  S
C1251      C1252   1.406       .  A
C1251      H1262   1.083       .  S
C1252      C1253   1.407       .  A
C1253      C1254   1.402       .  A
C1253      H1263   1.083       .  S
C1254      H1264   1.082       .  S
C1265      C1266   1.405       .  A
C1265      C1270   1.408       .  A
C1266      C1267   1.395       .  A
C1266      H1279   1.083       .  S
C1267      C1268   1.404       .  A
C1267      H1280   1.083       .  S
C1268      C1269   1.409       .  A
C1268      C1271   1.489       .  S
C1269      C1270   1.404       .  A
C1269      H1281   1.081       .  S
C1270      H1282   1.082       .  S
C1271      C1272   1.350       .  D
C1271      H1283   1.084       .  S
C1272      C1273   1.492       .  S
C1272      H1284   1.084       .  S
C1273      C1274   1.406       .  A
C1273      C1278   1.408       .  A
C1274      C1275   1.403       .  A
C1274      H1285   1.083       .  S
C1275      C1276   1.405       .  A
C1275      H1286   1.082       .  S
C1276      C1277   1.403       .  A
C1277      C1278   1.395       .  A
C1277      H1287   1.083       .  S
C1278      H1288   1.081       .  S
C1289      C1290   1.405       .  A
C1289      C1294   1.406       .  A
C1290      C1291   1.399       .  A
C1290      H1303   1.083       .  S
C1291      C1292   1.403       .  A
C1291      H1304   1.083       .  S
C1292      C1293   1.405       .  A
C1292      C1295   1.483       .  S
C1293      C1294   1.396       .  A
C1293      H1305   1.082       .  S
C1294      H1306   1.083       .  S
C1295      C1296   1.346       .  D
C1295      H1307   1.086       .  S
C1296      C1297   1.482       .  S
C1296      H1308   1.086       .  S
C1297      C1298   1.403       .  A
C1297      C1302   1.407       .  A
C1298      C1299   1.398       .  A
C1298      H1309   1.083       .  S
C1299      C1300   1.404       .  A
C1299      H1310   1.083       .  S
C1300      C1301   1.403       .  A
C1301      C1302   1.398       .  A
C1301      H1311   1.083       .  S
C1302      H1312   1.082       .  S
C1313      C1314   1.409   1_554  A
C1313      C1318   1.408       .  A
C1314      C1315   1.403       .  A
C1314      H1327   1.082       .  S
C1315      C1316   1.403       .  A
C1315      H1328   1.083       .  S
C1316      C1317   1.404   1_556  A
C1316      C1319   1.486       .  S
C1317      C1318   1.396       .  A
C1317      H1329   1.083       .  S
C1318      H1330   1.083       .  S
C1319      C1320   1.347       .  D
C1319      H1331   1.086       .  S
C1320      C1321   1.484       .  S
C1320      H1332   1.087   1_556  S
C1321      C1322   1.402       .  A
C1321      C1326   1.406       .  A
C1322      C1323   1.396       .  A
C1322      H1333   1.083   1_556  S
C1323      C1324   1.406       .  A
C1323      H1334   1.083   1_556  S
C1324      C1325   1.409       .  A
C1325      C1326   1.403       .  A
C1325      H1335   1.083       .  S
C1326      H1336   1.083       .  S
C1337      C1338   1.407       .  A
C1337      C1342   1.405       .  A
C1338      C1339   1.402       .  A
C1338      H1351   1.083       .  S
C1339      C1340   1.403       .  A
C1339      H1352   1.083       .  S
C1340      C1341   1.406       .  A
C1340      C1343   1.485       .  S
C1341      C1342   1.397       .  A
C1341      H1353   1.083   1_556  S
C1342      H1354   1.083       .  S
C1343      C1344   1.345       .  D
C1343      H1355   1.085       .  S
C1344      C1345   1.484       .  S
C1344      H1356   1.087       .  S
C1345      C1346   1.401   1_556  A
C1345      C1350   1.409       .  A
C1346      C1347   1.393       .  A
C1346      H1357   1.084       .  S
C1347      C1348   1.406       .  A
C1347      H1358   1.083       .  S
C1348      C1349   1.407   1_554  A
C1349      C1350   1.404       .  A
C1349      H1359   1.083       .  S
C1350      H1360   1.082       .  S
C1362      C1363   1.399       .  A
C1362      H1375   1.082       .  S
C1363      C1364   1.404       .  A
C1363      H1376   1.084       .  S
C1364      C1367   1.490       .  S
C1365      C1366   1.399   1_565  A
C1365      H1377   1.080       .  S
C1366      H1378   1.083   1_545  S
C1367      H1379   1.083       .  S
C1368      C1369   1.493   1_545  S
C1368      H1380   1.085       .  S
C1369      C1370   1.404   1_565  A
C1370      C1371   1.396       .  A
C1370      H1381   1.084       .  S
C1371      H1382   1.083       .  S
C1373      C1374   1.402       .  A
C1373      H1383   1.083       .  S
C1374      H1384   1.079       .  S
C1385      C1390   1.406       .  A
C1386      C1387   1.398       .  A
C1386      H1399   1.083       .  S
C1387      C1388   1.405       .  A
C1387      H1400   1.083       .  S
C1388      C1391   1.495       .  S
C1389      C1390   1.401       .  A
C1389      H1401   1.079       .  S
C1390      H1402   1.083       .  S
C1391      H1403   1.084       .  S
C1392      C1393   1.493       .  S
C1392      H1404   1.083       .  S
C1393      C1394   1.404       .  A
C1394      C1395   1.398       .  A
C1394      H1405   1.083       .  S
C1395      H1406   1.083       .  S
C1397      C1398   1.401       .  A
C1397      H1407   1.083       .  S
C1398      H1408   1.081       .  S
C1409      C1410   1.405       .  A
C1409      C1414   1.405       .  A
C1410      C1411   1.398       .  A
C1410      H1423   1.083       .  S
C1411      C1412   1.403       .  A
C1411      H1424   1.083       .  S
C1412      C1413   1.408       .  A
C1412      C1415   1.486       .  S
C1413      C1414   1.399       .  A
C1413      H1425   1.082       .  S
C1414      H1426   1.083       .  S
C1415      C1416   1.347       .  D
C1415      H1427   1.085       .  S
C1416      C1417   1.487       .  S
C1416      H1428   1.086       .  S
C1417      C1418   1.403       .  A
C1417      C1422   1.408       .  A
C1418      C1419   1.397       .  A
C1418      H1429   1.084       .  S
C1419      C1420   1.405       .  A
C1419      H1430   1.083       .  S
C1420      C1421   1.406       .  A
C1421      C1422   1.400       .  A
C1421      H1431   1.083       .  S
C1422      H1432   1.082       .  S
C1433      C1434   1.404       .  A
C1433      C1438   1.403       .  A
C1434      C1435   1.402       .  A
C1434      H1447   1.083       .  S
C1435      C1436   1.405       .  A
C1435      H1448   1.084       .  S
C1436      C1437   1.407       .  A
C1436      C1439   1.485       .  S
C1437      C1438   1.395       .  A
C1437      H1449   1.082       .  S
C1438      H1450   1.084       .  S
C1439      C1440   1.347       .  D
C1439      H1451   1.086       .  S
C1440      C1441   1.484       .  S
C1440      H1452   1.087       .  S
C1441      C1442   1.402       .  A
C1441      C1446   1.407       .  A
C1442      C1443   1.398       .  A
C1442      H1453   1.083       .  S
C1443      C1444   1.406       .  A
C1443      H1454   1.083       .  S
C1444      C1445   1.406       .  A
C1445      C1446   1.400       .  A
C1445      H1455   1.083       .  S
C1446      H1456   1.082       .  S
C1457      C1458   1.403       .  A
C1457      C1462   1.402       .  A
C1458      C1459   1.402       .  A
C1458      H1471   1.083       .  S
C1459      C1460   1.406       .  A
C1459      H1472   1.083       .  S
C1460      C1461   1.407       .  A
C1460      C1463   1.488       .  S
C1461      C1462   1.394       .  A
C1461      H1473   1.082       .  S
C1462      H1474   1.083       .  S
C1463      C1464   1.349       .  D
C1463      H1475   1.083       .  S
C1464      C1465   1.489       .  S
C1464      H1476   1.086       .  S
C1465      C1466   1.404       .  A
C1465      C1470   1.410       .  A
C1466      C1467   1.394       .  A
C1466      H1477   1.084       .  S
C1467      C1468   1.404       .  A
C1467      H1478   1.083       .  S
C1468      C1469   1.407       .  A
C1469      C1470   1.403       .  A
C1469      H1479   1.083       .  S
C1470      H1480   1.080       .  S
