geometry optimzed in LAMMPS
_audit_creation_date              2020-12-01 
_audit_creation_method            'lammps2cif' 
_symmetry_space_group_name_H-M    'P1' 
_symmetry_Int_Tables_number       1 
_symmetry_cell_setting            triclinic 
loop_ 
_symmetry_equiv_pos_as_xyz 
  x,y,z 
_cell_length_a                    38.56948979 
_cell_length_b                    41.29474526173724 
_cell_length_c                    31.722352245891397 
_cell_angle_alpha                 89.9693633711038 
_cell_angle_beta                  90.1017435450854 
_cell_angle_gamma                 125.46199556256168 
loop_ 
_atom_site_label 
_atom_site_type_symbol 
_atom_site_fract_x 
_atom_site_fract_y 
_atom_site_fract_z 
_atom_site_charge 
Zr1        Zr  0.33060861  0.22673692  0.32587454     2.17500
O2          O  0.34909840  0.29320086  0.31292850    -0.51200
O3          O  0.27253029  0.21166131  0.27819052    -0.74400
O4          O  0.39233092  0.26549147  0.27510936    -0.81200
O5          O  0.28941797  0.21912549  0.44066807    -0.82900
O6          O  0.40829538  0.22365901  0.25106622    -0.78600
O7          O  0.32300857  0.26142304  0.38513889    -0.90200
O8          O  0.21862509  0.14610761  0.28114999    -0.76200
O9          O  0.30821065  0.16953887  0.28446886    -0.85700
O10         O  0.26701128  0.17176812  0.35864214    -0.84600
O11         O  0.38623515  0.21745948  0.33104384    -0.72100
O12         O  0.34410463  0.21709359  0.39686483    -0.84200
Zr13       Zr  0.32719756  0.10130724  0.38817763     2.26400
Zr14       Zr  0.36423865  0.16037468  0.28856604     2.06300
Zr15       Zr  0.28270328  0.15844899  0.42679922     2.10000
Zr16       Zr  0.24686570  0.11558986  0.31871376     1.78800
O17         O  0.29081724  0.17223260  0.50221749    -0.93000
O18         O  0.24671068  0.10110477  0.24501454    -0.40900
O19         O  0.27404472  0.11188562  0.38201791    -0.77500
O20         O  0.30085920  0.10498606  0.32006509    -0.96200
O21         O  0.38758474  0.15838404  0.35785726    -0.89500
O22         O  0.34183066  0.15429392  0.43279550    -0.92300
C23         C  0.23508283  0.18137174  0.26786385     1.01400
C24         C  0.30591920  0.25265438  0.42223166     1.14400
C25         C  0.41555949  0.25826027  0.25298932     1.05100
O26         O  0.36449054  0.15445306  0.21222116    -0.94500
O27         O  0.34521648  0.09463453  0.26748002    -0.90200
O28         O  0.32867226  0.06151164  0.32988209    -0.83400
C29         C  0.33374533  0.06361478  0.28940234     1.11800
O30         O  0.45279378  0.28376302  0.39232698    -0.96500
Zr31       Zr  0.40174684  0.21236904  0.40111549     1.88900
O32         O  0.39973876  0.12736409  0.42103045    -0.73100
O33         O  0.42656450  0.16177798  0.30386207    -0.52400
O34         O  0.47322129  0.23643841  0.37847097    -0.97000
O35         O  0.39918431  0.24630573  0.46230862    -0.54300
O36         O  0.42048959  0.18419059  0.45281613    -0.73600
C37         C  0.42655408  0.15801318  0.44439547     0.98700
O38         O  0.32176627  0.04311427  0.41361488    -0.62400
O39         O  0.20745719  0.13099760  0.42460664    -0.57200
O40         O  0.26933162  0.05930868  0.43895160    -0.93900
O41         O  0.24294856  0.09338318  0.46118326    -0.92300
O42         O  0.17469024  0.08683597  0.34378150    -0.92700
O43         O  0.19653273  0.04398492  0.32010426    -0.91500
C44         C  0.24269757  0.06209309  0.46032480     1.17600
H45         H  0.24509967  0.17630195  0.35940539     0.33500
H46         H  0.28529561  0.08023463  0.30491312     0.44400
H47         H  0.34555407  0.14997741  0.46188205     0.37900
H48         H  0.41438351  0.24010509  0.32452618     0.34400
H49         H  0.24805411  0.12232383  0.22890967     0.26200
H50         H  0.43068327  0.15069365  0.27840568     0.32100
H51         H  0.47380595  0.21280621  0.37808666     0.38000
H52         H  0.15703069  0.07943711  0.31797958     0.32500
H53         H  0.19696351  0.12025907  0.45317822     0.31300
H54         H  0.29635867  0.15370129  0.01475592     0.33000
H55         H  0.37191162  0.22649843  0.47647654     0.32000
H56         H  0.20949260  0.03481142  0.33919632     0.36000
H57         H  0.30026640  0.02126578  0.39508585     0.28700
H58         H  0.35216555  0.29652694  0.28199553     0.33000
H59         H  0.43635895  0.29282083  0.37954709     0.35800
H60         H  0.20697788  0.15465178  0.42274094     0.28400
H61         H  0.34897634  0.04734666  0.40570705     0.41300
H62         H  0.34219445  0.15746800  0.20206387     0.31300
H63         H  0.27465827  0.10589664  0.24002728     0.39000
H64         H  0.39567136  0.26674862  0.45157062     0.30800
H65         H  0.44993313  0.19046123  0.30395896     0.30900
H66         H  0.37842405  0.31157595  0.32395886     0.31100
C67         C  0.47589430  0.43017922  0.48267553     0.80300
N68         N  0.43867143  0.42730572  0.48223943    -0.78000
C69         C  0.44038105  0.46128220  0.48141016     0.82800
N70         N  0.47846556  0.99694332  0.48104743    -0.77900
C71         C  0.01506261  0.99992122  0.48176991     0.82900
N72         N  0.01392389  0.46659661  0.48258459    -0.79600
N73         N  0.20642910  0.99418473  0.99550513    -0.03400
C74         C  0.16958482  0.46933284  0.01720056    -0.00800
C75         C  0.14715508  0.48592723  0.01933542    -0.23700
C76         C  0.17109149  0.02194725  0.99824500    -0.23900
C77         C  0.20768652  0.02653234  0.48406579    -0.00900
H78         H  0.11723230  0.47376132  0.03533579     0.12900
H79         H  0.16291120  0.04278881  0.49427586     0.13000
N80         N  0.27385112  0.27467095  0.47307429    -0.03400
C81         C  0.28507077  0.30914367  0.99083798    -0.00800
C82         C  0.32497691  0.33970910  0.97625845    -0.23700
C83         C  0.33785073  0.32315480  0.44790661    -0.23900
C84         C  0.30560269  0.28294036  0.44669753    -0.00900
H85         H  0.34270439  0.37065520  0.98515004     0.12900
H86         H  0.36765528  0.33863051  0.43087002     0.13000
N87         N  0.50100461  0.20386855  0.47588341    -0.03400
C88         C  0.03497605  0.20276002  0.98450915    -0.00800
C89         C  0.02363732  0.16486899  0.97560009    -0.23700
C90         C  0.48198320  0.14278403  0.46002251    -0.23900
C91         C  0.46847597  0.16741931  0.46052804    -0.00900
H92         H  0.04343397  0.15436463  0.97962912     0.12900
H93         H  0.46382704  0.11223186  0.44937750     0.13000
Zr94       Zr  0.16199399  0.26960063  0.07542649     2.17500
O95         O  0.14339918  0.20318607  0.06216741    -0.51200
O96         O  0.22046282  0.28412435  0.02892649    -0.74400
O97         O  0.09981230  0.22985134  0.02566239    -0.81200
O98         O  0.20638729  0.27765969  0.18855525    -0.82900
O99         O  0.08360983  0.27133993  0.00109324    -0.78600
O100        O  0.17004725  0.23485997  0.13386562    -0.90200
O101        O  0.27446492  0.34962989  0.03243115    -0.76200
O102        O  0.18308902  0.32589298  0.03314126    -0.85700
O103        O  0.22564449  0.32490331  0.10775134    -0.85400
O104        O  0.10627579  0.27881663  0.08082196    -0.72100
O105        O  0.14916519  0.27930388  0.14650176    -0.84200
Zr106      Zr  0.16492530  0.39457865  0.13759419     2.26400
Zr107      Zr  0.12730514  0.33524025  0.03735901     2.06300
Zr108      Zr  0.21086921  0.33767790  0.17649542     2.10000
Zr109      Zr  0.24483841  0.38020436  0.06660147     1.78800
O110        O  0.20365122  0.32303472  0.25164711    -0.93000
O111        O  0.24160684  0.39212813  0.99273557    -0.40900
O112        O  0.22527799  0.39066012  0.13399859    -0.77500
O113        O  0.19056654  0.39059457  0.06908944    -0.96200
O114        O  0.10515466  0.33712793  0.10724384    -0.89500
O115        O  0.15173562  0.34193530  0.18194058    -0.92300
C116        C  0.25825611  0.31431664  0.01948559     1.01400
C117        C  0.18868813  0.24387151  0.17018084     1.14400
C118        C  0.07637843  0.23679871  0.00354177     1.05100
O119        O  0.13422948  0.34002041  0.96086363    -0.94500
O120        O  0.14544133  0.40130943  0.01797509    -0.90200
O121        O  0.16347158  0.43493585  0.08015143    -0.83400
C122        C  0.15764948  0.43258762  0.03981706     1.11800
O123        O  0.04335968  0.21210818  0.14211424    -0.96500
Zr124      Zr  0.09145580  0.28380712  0.15099629     1.88900
O125        O  0.09200258  0.36773173  0.17005158    -0.73100
O126        O  0.06267741  0.33231124  0.03900037    -0.52400
O127        O  0.02171243  0.26485175  0.12815629    -0.97000
O128        O  0.09310025  0.25047155  0.21318264    -0.54300
O129        O  0.07200997  0.31138264  0.20255319    -0.73600
C130        C  0.06531295  0.33703738  0.19341999     0.98700
O131        O  0.17059244  0.45230136  0.16421168    -0.62400
O132        O  0.28663008  0.36776199  0.17279510    -0.57200
O133        O  0.22366629  0.43667295  0.18766944    -0.93900
O134        O  0.24970746  0.40263594  0.21132040    -0.92300
O135        O  0.32075677  0.41563468  0.08067639    -0.92700
O136        O  0.29369452  0.45149560  0.07482683    -0.91500
C137        C  0.25006017  0.43399963  0.20977135     1.17600
H138        H  0.24753849  0.32042787  0.10834308     0.33500
H139        H  0.20589174  0.41535058  0.05391625     0.44400
H140        H  0.14792089  0.34626396  0.21098004     0.37900
H141        H  0.07802405  0.25588815  0.07454681     0.34400
H142        H  0.23939670  0.37016234  0.97727007     0.26200
H143        H  0.04390243  0.31105647  0.05937332     0.32100
H144        H  0.01457639  0.24817173  0.10274888     0.38000
H145        H  0.32354870  0.39687450  0.09710301     0.32500
H146        H  0.29721531  0.37768789  0.20164114     0.31300
H147        H  0.19174716  0.33678913  0.26358355     0.33000
H148        H  0.11839179  0.27132029  0.22929575     0.32000
H149        H  0.27775889  0.45934071  0.09108200     0.36000
H150        H  0.19143545  0.47403344  0.14521265     0.28700
H151        H  0.14091664  0.20025378  0.03120058     0.33000
H152        H  0.06164992  0.20398005  0.13236053     0.35800
H153        H  0.28845366  0.34506264  0.16917526     0.28400
H154        H  0.14310647  0.44785681  0.15726840     0.41300
H155        H  0.12471280  0.35667957  0.45218148     0.31300
H156        H  0.21377164  0.38772529  0.98838149     0.39000
H157        H  0.10018490  0.23216442  0.20353292     0.30800
H158        H  0.07009568  0.35709449  0.05281259     0.30900
H159        H  0.11385994  0.18470873  0.07258145     0.31100
C160        C  0.05366655  0.03600978  0.20692731     0.80300
N161        N  0.51642521  0.49978192  0.20278963    -0.78000
C162        C  0.47899204  0.49531002  0.20304749     0.82800
N163        N  0.47846892  0.02760778  0.20723449    -0.77900
C164        C  0.01551080  0.06451049  0.21068261     0.82900
N165        N  0.05352074  0.06885417  0.21133589    -0.79600
N166        N  0.28602379  0.50235485  0.24400929    -0.03400
C167        C  0.32217923  0.02693509  0.26692464    -0.00800
C168        C  0.34413962  0.00999505  0.27082339    -0.23700
C169        C  0.32065425  0.47399223  0.24966527    -0.23900
C170        C  0.28469157  0.46970255  0.23373455    -0.00900
H171        H  0.37341639  0.02192293  0.28810947     0.12900
H172        H  0.32864675  0.45292446  0.24691650     0.13000
N173        N  0.99009666  0.29047853  0.22307186    -0.03400
C174        C  0.45678524  0.29212909  0.23333971    -0.00800
C175        C  0.46898026  0.33060700  0.22635408    -0.23700
C176        C  0.01050979  0.35258096  0.21060540    -0.23900
C177        C  0.02313922  0.32729595  0.20904488    -0.00900
H178        H  0.44996096  0.34168912  0.23215812     0.12900
H179        H  0.02935124  0.38362890  0.20169357     0.13000
N180        N  0.22137938  0.22089699  0.21885409    -0.03400
C181        C  0.20888531  0.18667133  0.23826949    -0.00800
C182        C  0.16780304  0.15678840  0.22544418    -0.23700
C183        C  0.15519043  0.17367580  0.19716393    -0.23900
C184        C  0.18888128  0.21328256  0.19399878    -0.00900
H185        H  0.14893274  0.12611192  0.23564418     0.12900
H186        H  0.12454360  0.15894796  0.18170179     0.13000
C187        C  0.45186432  0.13182070  0.16159953    -0.17700
C188        C  0.44691302  0.16270613  0.16419869    -0.19900
C189        C  0.46871583  0.19225279  0.19514998     0.20800
C190        C  0.99466699  0.18999015  0.22469853    -0.02800
C191        C  0.99986276  0.15887726  0.22192934    -0.05900
C192        C  0.47882337  0.13008952  0.18980851     0.21100
C193        C  0.02668726  0.15702407  0.25070678     0.19200
C194        C  0.04584483  0.18493924  0.28363696    -0.17300
C195        C  0.04007941  0.21543432  0.28686140    -0.19600
C196        C  0.01579107  0.21905607  0.25664937     0.20700
C197        C  0.01289539  0.25152332  0.25713198    -0.32600
C198        C  0.98970227  0.25533442  0.22566459     0.01400
C199        C  0.46633516  0.22481323  0.19599852    -0.23900
C200        C  0.48524325  0.10015991  0.18620859    -0.28500
C201        C  0.01291216  0.09874162  0.21371433     0.07100
C202        C  0.03364510  0.12724233  0.24599467    -0.27200
H203        H  0.43524560  0.10970352  0.13698302     0.11800
H204        H  0.42676443  0.16397448  0.14141511     0.12900
H205        H  0.06585284  0.18358049  0.30651919     0.12000
H206        H  0.05591924  0.23705469  0.31202488     0.11200
H207        H  0.02981171  0.27456991  0.28081295     0.16600
H208        H  0.44752180  0.22739842  0.17261938     0.12500
H209        H  0.46874345  0.07782944  0.16171849     0.15400
H210        H  0.05403072  0.12548566  0.26800678     0.15200
C211        C  0.22414367  0.05969324  0.16405734    -0.17700
C212        C  0.19233113  0.06615806  0.15999887    -0.19900
C213        C  0.15774347  0.04815983  0.18804514     0.20800
C214        C  0.15405389  0.52156908  0.21893051    -0.02800
C215        C  0.18584852  0.51487023  0.22287491    -0.05900
C216        C  0.22198230  0.03525297  0.19640334     0.21100
C217        C  0.18182846  0.48825084  0.25381242     0.19200
C218        C  0.14506721  0.46678540  0.27871795    -0.17300
C219        C  0.11396879  0.47392146  0.27530684    -0.19600
C220        C  0.11879051  0.50192258  0.24629579     0.20700
C221        C  0.08841514  0.50997582  0.24375822    -0.32600
C222        C  0.09171278  0.03648490  0.21350079     0.01400
C223        C  0.12635948  0.05554994  0.18549987    -0.23900
C224        C  0.25562334  0.03166158  0.20384753    -0.28500
C225        C  0.25256441  0.50710216  0.23651491     0.07100
C226        C  0.21524963  0.48460933  0.26034767    -0.27200
H227        H  0.25117759  0.07492282  0.14291914     0.11800
H228        H  0.19529683  0.08594653  0.13554233     0.12900
H229        H  0.14125064  0.44578122  0.30206874     0.12000
H230        H  0.08645459  0.45798570  0.29582072     0.11200
H231        H  0.06097768  0.49436234  0.26448226     0.16600
H232        H  0.12798073  0.07474072  0.16105407     0.12500
H233        H  0.28404858  0.04781403  0.18457675     0.15400
H234        H  0.21281403  0.46479218  0.28449092     0.15200
C235        C  0.36006689  0.31779663  0.15756417    -0.17700
C236        C  0.39535500  0.35725118  0.15375657    -0.19900
C237        C  0.40093278  0.38624176  0.18171176     0.20800
C238        C  0.37160904  0.37529158  0.21476905    -0.02800
C239        C  0.33649994  0.33540734  0.21910493    -0.05900
C240        C  0.33017086  0.30679112  0.18962693     0.21100
C241        C  0.30624817  0.32466706  0.25122987     0.19200
C242        C  0.31252526  0.35347363  0.27990281    -0.17300
C243        C  0.34743093  0.39310028  0.27559182    -0.19600
C244        C  0.37654215  0.40440430  0.24260180     0.20700
C245        C  0.41038945  0.44430612  0.23677747    -0.32600
C246        C  0.43988211  0.45505880  0.20438217     0.01400
C247        C  0.43525448  0.42605025  0.17714069    -0.23900
C248        C  0.29284996  0.26824102  0.19135921    -0.28500
C249        C  0.26204658  0.25819274  0.22193952     0.07100
C250        C  0.26924910  0.28579487  0.25265998    -0.27200
H251        H  0.35567281  0.29607229  0.13489458     0.11800
H252        H  0.41779153  0.36524384  0.12841534     0.12900
H253        H  0.28975185  0.34558750  0.30484772     0.12000
H254        H  0.35113744  0.41505032  0.29748380     0.11200
H255        H  0.41481457  0.46677659  0.25838542     0.16600
H256        H  0.45859710  0.43457894  0.15255919     0.12500
H257        H  0.28657065  0.24639961  0.16784034     0.15400
H258        H  0.24491295  0.27742659  0.27600647     0.15200
C259        C  0.19089182  0.14438641  0.54102371    -0.17700
C260        C  0.15544628  0.10465796  0.54057525    -0.19900
C261        C  0.12279139  0.09159878  0.51092031     0.20800
C262        C  0.12539322  0.11905677  0.48207009    -0.02800
C263        C  0.16098580  0.15896234  0.48250753    -0.05900
C264        C  0.19419913  0.17158372  0.51178309     0.21100
C265        C  0.16429212  0.18580858  0.45227645     0.19200
C266        C  0.13152811  0.17299892  0.42298153    -0.17300
C267        C  0.09598415  0.13355945  0.42291813    -0.19600
C268        C  0.09293781  0.10644375  0.45198685     0.20700
C269        C  0.05785744  0.06687441  0.45147316    -0.32600
C270        C  0.05494674  0.03954869  0.48008843     0.01400
C271        C  0.08754142  0.05165871  0.50946631    -0.23900
C272        C  0.23081376  0.21071666  0.50992223    -0.28500
C273        C  0.23456430  0.23661524  0.47871611     0.07100
C274        C  0.20117179  0.22453165  0.45069308    -0.27200
H275        H  0.21610396  0.15365372  0.56366835     0.11800
H276        H  0.15382108  0.08404312  0.56304961     0.12900
H277        H  0.13369146  0.19333398  0.39973122     0.12000
H278        H  0.07109614  0.12414016  0.39981193     0.11200
H279        H  0.03238638  0.05722737  0.42895738     0.16600
H280        H  0.08468806  0.03042671  0.53192560     0.12500
H281        H  0.25718940  0.22067855  0.53126403     0.15400
H282        H  0.20482588  0.24508012  0.42679738     0.15200
C283        C  0.94615003  0.27296530  0.54403281    -0.17700
C284        C  0.94012353  0.30337453  0.54312169    -0.19900
C285        C  0.96030275  0.33341325  0.51239300     0.20800
C286        C  0.48764059  0.33323427  0.48290656    -0.02800
C287        C  0.49302447  0.30219974  0.48325752    -0.05900
C288        C  0.97183397  0.27162606  0.51370997     0.21100
C289        C  0.51993282  0.30195204  0.45332212     0.19200
C290        C  0.54216547  0.33314753  0.42422239    -0.17300
C291        C  0.53713021  0.36401586  0.42411400    -0.19600
C292        C  0.50959186  0.36403419  0.45293847     0.20700
C293        C  0.50405438  0.39462250  0.45254664    -0.32600
C294        C  0.47650897  0.39482631  0.48125674     0.01400
C295        C  0.95428507  0.36396827  0.51091269    -0.23900
C296        C  0.97618968  0.24005761  0.51259125    -0.28500
C297        C  0.50045458  0.23835990  0.48069300     0.07100
C298        C  0.52318611  0.26995381  0.45216666    -0.27200
H299        H  0.92994261  0.25000240  0.06779148     0.11800
H300        H  0.91954011  0.30332378  0.06631692     0.12900
H301        H  0.56286357  0.33329556  0.40105060     0.12000
H302        H  0.55437028  0.38762960  0.40110770     0.11200
H303        H  0.52155941  0.41869473  0.43001552     0.16600
H304        H  0.93384062  0.36467282  0.53373575     0.12500
H305        H  0.95935916  0.21594921  0.03507977     0.15400
H306        H  0.54264920  0.26888283  0.42837401     0.15200
C307        C  0.27552848  0.94114882  0.42118102    -0.17700
C308        C  0.30758022  0.93481826  0.42037485    -0.19900
C309        C  0.33982347  0.95208634  0.45116086     0.20800
C310        C  0.34142995  0.97830372  0.48107648    -0.02800
C311        C  0.30931006  0.98470243  0.48188388    -0.05900
C312        C  0.27494636  0.96439583  0.45321912     0.21100
C313        C  0.31093574  0.01053134  0.01230441     0.19200
C314        C  0.34605831  0.03200288  0.03943952    -0.17300
C315        C  0.37756656  0.52526754  0.03901701    -0.19600
C316        C  0.37463899  0.99751653  0.51094097     0.20700
C317        C  0.40450282  0.48877414  0.51230379    -0.32600
C318        C  0.40278327  0.46204182  0.48350845     0.01400
C319        C  0.37077862  0.94414335  0.45246044    -0.23900
C320        C  0.24025321  0.96683532  0.45815119    -0.28500
C321        C  0.24069691  0.99027170  0.49052320     0.07100
C322        C  0.27653245  0.01301056  0.01639880    -0.27200
H323        H  0.25004586  0.92622565  0.39817532     0.11800
H324        H  0.30641313  0.91547839  0.39646645     0.12900
H325        H  0.34807193  0.05247805  0.06237047     0.12000
H326        H  0.40359193  0.54095271  0.06139286     0.11200
H327        H  0.43016358  0.50376777  0.03521876     0.16600
H328        H  0.37079902  0.92520686  0.42882132     0.12500
H329        H  0.21306110  0.95066921  0.43717348     0.15400
H330        H  0.27698624  0.03206176  0.04023677     0.15200
Zr331      Zr  0.33061215  0.22673757  0.82587192     2.17500
O332        O  0.34909272  0.29319585  0.81290819    -0.51200
O333        O  0.27253342  0.21165545  0.77818478    -0.74400
O334        O  0.39232665  0.26548423  0.77510105    -0.81200
O335        O  0.28942993  0.21912735  0.94067084    -0.82900
O336        O  0.40827881  0.22364593  0.75104708    -0.78600
O337        O  0.32303240  0.26142979  0.88514725    -0.90200
O338        O  0.21861681  0.14610708  0.78117308    -0.76200
O339        O  0.30820449  0.16953344  0.78447520    -0.85700
O340        O  0.26701924  0.17177656  0.85865132    -0.84600
O341        O  0.38623913  0.21745860  0.83103199    -0.72100
O342        O  0.34411062  0.21709288  0.89685813    -0.84200
Zr343      Zr  0.32719918  0.10130659  0.88818166     2.26400
Zr344      Zr  0.36423097  0.16036730  0.78856136     2.06300
Zr345      Zr  0.28271387  0.15845267  0.92680487     2.10000
Zr346      Zr  0.24686331  0.11559239  0.81873091     1.78800
O347        O  0.29082800  0.17226823  0.00221659    -0.93000
O348        O  0.24668813  0.10111270  0.74502832    -0.40900
O349        O  0.27404576  0.11188284  0.88202918    -0.77500
O350        O  0.30085422  0.10498334  0.82007067    -0.96200
O351        O  0.38758286  0.15838177  0.85785058    -0.89500
O352        O  0.34184269  0.15429970  0.93279634    -0.92300
C353        C  0.23508099  0.18136714  0.76786957     1.01400
C354        C  0.30593952  0.25265893  0.92223902     1.14400
C355        C  0.41554829  0.25824940  0.75297486     1.05100
O356        O  0.36448771  0.15446216  0.71221415    -0.94500
O357        O  0.34521240  0.09462480  0.76748884    -0.90200
O358        O  0.32866207  0.06150219  0.82989186    -0.83400
C359        C  0.33373841  0.06360515  0.78941316     1.11800
O360        O  0.45281406  0.28376520  0.89231275    -0.96500
Zr361      Zr  0.40175412  0.21237279  0.90110346     1.88900
O362        O  0.39974219  0.12736580  0.92102518    -0.73100
O363        O  0.42655650  0.16176849  0.80384930    -0.52400
O364        O  0.47323087  0.23644544  0.87846348    -0.97000
O365        O  0.39918241  0.24633130  0.96227123    -0.54300
O366        O  0.42049511  0.18419526  0.95280484    -0.73600
C367        C  0.42656001  0.15801822  0.94438433     0.98700
O368        O  0.32177163  0.04311141  0.91360851    -0.62400
O369        O  0.20746325  0.13098191  0.92459246    -0.57200
O370        O  0.26933901  0.05931219  0.93896438    -0.93900
O371        O  0.24296653  0.09339322  0.96120504    -0.92300
O372        O  0.17471170  0.08685957  0.84385857    -0.92700
O373        O  0.19652291  0.04398960  0.82008089    -0.91500
C374        C  0.24271040  0.06210033  0.96034337     1.17600
H375        H  0.24510779  0.17631441  0.85941654     0.33500
H376        H  0.28529117  0.08023357  0.80491938     0.44400
H377        H  0.34556731  0.14998626  0.96188318     0.37900
H378        H  0.41438879  0.24010138  0.82450990     0.34400
H379        H  0.24803707  0.12233800  0.72892689     0.26200
H380        H  0.43067417  0.15068479  0.77838822     0.32100
H381        H  0.47380899  0.21280887  0.87805726     0.38000
H382        H  0.15703630  0.07947365  0.81807200     0.32500
H383        H  0.19696168  0.12023395  0.95315711     0.31300
H384        H  0.29645006  0.15372662  0.51472684     0.33000
H385        H  0.37189690  0.22653696  0.97642858     0.32000
H386        H  0.20944391  0.03480742  0.83921980     0.36000
H387        H  0.30024716  0.02125796  0.89509793     0.28700
H388        H  0.35216879  0.29651962  0.78197472     0.33000
H389        H  0.43639781  0.29282163  0.87948697     0.35800
H390        H  0.20697419  0.15463127  0.92272959     0.28400
H391        H  0.34896872  0.04733065  0.90567004     0.41300
H392        H  0.34213086  0.15739607  0.70206515     0.31300
H393        H  0.27462946  0.10589712  0.74003603     0.39000
H394        H  0.39569648  0.26678604  0.95151743     0.30800
H395        H  0.44992159  0.19044827  0.80394746     0.30900
H396        H  0.37841528  0.31157557  0.82394523     0.31100
C397        C  0.47589720  0.43018525  0.98265039     0.80300
N398        N  0.43867560  0.42731371  0.98222222    -0.78000
C399        C  0.44038737  0.46129120  0.98139905     0.82800
N400        N  0.47847827  0.99695143  0.98104256    -0.77900
C401        C  0.01506340  0.99992257  0.98177828     0.82900
N402        N  0.01393462  0.46660071  0.98253092    -0.79600
N403        N  0.20642213  0.99417966  0.49548879    -0.03400
C404        C  0.16958335  0.46933104  0.51720103    -0.00800
C405        C  0.14715096  0.48592259  0.51934055    -0.23700
C406        C  0.17108318  0.02194128  0.49823248    -0.23900
C407        C  0.20769715  0.02653957  0.98408365    -0.00900
H408        H  0.11722942  0.47375459  0.53534438     0.12900
H409        H  0.16292008  0.04279488  0.99428640     0.13000
N410        N  0.27386584  0.27466795  0.97308146    -0.03400
C411        C  0.28506349  0.30914734  0.49083532    -0.00800
C412        C  0.32496806  0.33971021  0.47624997    -0.23700
C413        C  0.33786761  0.32315667  0.94792092    -0.23900
C414        C  0.30562207  0.28294180  0.94670893    -0.00900
H415        H  0.34270094  0.37065592  0.48514387     0.12900
H416        H  0.36767408  0.33863520  0.93088755     0.13000
N417        N  0.50100877  0.20387321  0.97587438    -0.03400
C418        C  0.03496799  0.20275624  0.48453555    -0.00800
C419        C  0.02362897  0.16486189  0.47564637    -0.23700
C420        C  0.48199287  0.14279321  0.95999448    -0.23900
C421        C  0.46848276  0.16742591  0.96051241    -0.00900
H422        H  0.04342669  0.15435971  0.47968564     0.12900
H423        H  0.46383945  0.11224415  0.94933953     0.13000
Zr424      Zr  0.16199114  0.26960143  0.57543838     2.17500
O425        O  0.14337652  0.20317801  0.56219236    -0.51200
O426        O  0.22046342  0.28413035  0.52893835    -0.74400
O427        O  0.09981496  0.22985973  0.52566901    -0.81200
O428        O  0.20640449  0.27765783  0.68854501    -0.82900
O429        O  0.08359466  0.27133876  0.50111114    -0.78600
O430        O  0.17002634  0.23484720  0.63387410    -0.90200
O431        O  0.27446947  0.34963513  0.53244272    -0.76200
O432        O  0.18308519  0.32589447  0.53315625    -0.85700
O433        O  0.22564395  0.32490234  0.60776272    -0.85400
O434        O  0.10627363  0.27881834  0.58083294    -0.72100
O435        O  0.14915794  0.27929946  0.64651340    -0.84200
Zr436      Zr  0.16492273  0.39457657  0.63759934     2.26400
Zr437      Zr  0.12729990  0.33524002  0.53736954     2.06300
Zr438      Zr  0.21086406  0.33767097  0.67650694     2.10000
Zr439      Zr  0.24483764  0.38020513  0.56661272     1.78800
O440        O  0.20363925  0.32300341  0.75165298    -0.93000
O441        O  0.24160068  0.39212459  0.49274630    -0.40900
O442        O  0.22527339  0.39065372  0.63400994    -0.77500
O443        O  0.19056365  0.39059207  0.56909648    -0.96200
O444        O  0.10514857  0.33712703  0.60725369    -0.89500
O445        O  0.15173300  0.34193300  0.68194733    -0.92300
C446        C  0.25825652  0.31432194  0.51949381     1.01400
C447        C  0.18868630  0.24386299  0.67017884     1.14400
C448        C  0.07637178  0.23680092  0.50355692     1.05100
O449        O  0.13422512  0.33998645  0.46087400    -0.94500
O450        O  0.14543964  0.40130763  0.51797581    -0.90200
O451        O  0.16347249  0.43493456  0.58015258    -0.83400
C452        C  0.15765054  0.43258664  0.53981759     1.11800
O453        O  0.04335552  0.21210575  0.64211504    -0.96500
Zr454      Zr  0.09144980  0.28380602  0.65100476     1.88900
O455        O  0.09200021  0.36773178  0.67005706    -0.73100
O456        O  0.06268346  0.33233336  0.53902547    -0.52400
O457        O  0.02170169  0.26484912  0.62817660    -0.97000
O458        O  0.09310228  0.25048928  0.71320084    -0.54300
O459        O  0.07200987  0.31138476  0.70256156    -0.73600
C460        C  0.06531120  0.33703768  0.69342632     0.98700
O461        O  0.17061981  0.45231086  0.66422492    -0.62400
O462        O  0.28663268  0.36778689  0.67283391    -0.57200
O463        O  0.22365924  0.43667369  0.68766997    -0.93900
O464        O  0.24969128  0.40263114  0.71132870    -0.92300
O465        O  0.32075755  0.41564246  0.58068495    -0.92700
O466        O  0.29367014  0.45150048  0.57482795    -0.91500
C467        C  0.25004772  0.43399689  0.70977537     1.17600
H468        H  0.24753627  0.32042776  0.60835541     0.33500
H469        H  0.20589121  0.41535225  0.55391765     0.44400
H470        H  0.14791874  0.34626325  0.71098989     0.37900
H471        H  0.07802869  0.25589515  0.57456147     0.34400
H472        H  0.23938999  0.37015725  0.47728050     0.26200
H473        H  0.04389978  0.31107214  0.55939416     0.32100
H474        H  0.01455888  0.24816437  0.60277069     0.38000
H475        H  0.32355095  0.39688931  0.59712305     0.32500
H476        H  0.29719473  0.37767086  0.70169842     0.31300
H477        H  0.19176214  0.33677801  0.76360196     0.33000
H478        H  0.11840512  0.27134037  0.72930272     0.32000
H479        H  0.27770247  0.45934521  0.59102112     0.36000
H480        H  0.19145641  0.47403781  0.64521847     0.28700
H481        H  0.14089113  0.20023981  0.53122533     0.33000
H482        H  0.06164233  0.20398471  0.63232609     0.35800
H483        H  0.28847111  0.34510236  0.66917012     0.28400
H484        H  0.14313391  0.44787079  0.65729657     0.41300
H485        H  0.12468591  0.35669094  0.95218522     0.31300
H486        H  0.21376470  0.38772120  0.48839237     0.39000
H487        H  0.10017129  0.23217137  0.70355457     0.30800
H488        H  0.07010871  0.35711267  0.55284632     0.30900
H489        H  0.11383789  0.18470828  0.57260877     0.31100
C490        C  0.05367131  0.03601408  0.70691418     0.80300
N491        N  0.51642599  0.49977750  0.70273881    -0.78000
C492        C  0.47899063  0.49530197  0.70297719     0.82800
N493        N  0.47845353  0.02759389  0.70714010    -0.77900
C494        C  0.01551058  0.06450807  0.71068946     0.82900
N495        N  0.05352077  0.06885367  0.71134805    -0.79600
N496        N  0.28600807  0.50234904  0.74401615    -0.03400
C497        C  0.32216994  0.02692462  0.76693707    -0.00800
C498        C  0.34413296  0.00998618  0.77082470    -0.23700
C499        C  0.32064334  0.47398943  0.74966029    -0.23900
C500        C  0.28467778  0.46969851  0.73373727    -0.00900
H501        H  0.37341342  0.02191439  0.78810391     0.12900
H502        H  0.32863751  0.45292304  0.74690597     0.13000
N503        N  0.99009539  0.29047574  0.72307760    -0.03400
C504        C  0.45677614  0.29211909  0.73333088    -0.00800
C505        C  0.46896828  0.33059562  0.72634262    -0.23700
C506        C  0.01050040  0.35257378  0.71059637    -0.23900
C507        C  0.02313574  0.32729308  0.70904787    -0.00900
H508        H  0.44994392  0.34167400  0.73213692     0.12900
H509        H  0.02933872  0.38362019  0.70167900     0.13000
N510        N  0.22138043  0.22088615  0.71884572    -0.03400
C511        C  0.20888489  0.18666332  0.73826915    -0.00800
C512        C  0.16780116  0.15678018  0.72544801    -0.23700
C513        C  0.15518798  0.17366561  0.69716512    -0.23900
C514        C  0.18888014  0.21327194  0.69399436    -0.00900
H515        H  0.14892955  0.12610555  0.73565434     0.12900
H516        H  0.12453928  0.15893720  0.68170675     0.13000
C517        C  0.45183710  0.13181401  0.66158360    -0.17700
C518        C  0.44689369  0.16270366  0.66418954    -0.19900
C519        C  0.46870472  0.19224837  0.69514084     0.20800
C520        C  0.99466963  0.18998953  0.72472451    -0.02800
C521        C  0.99986516  0.15887657  0.72195618    -0.05900
C522        C  0.47879939  0.13007870  0.68978352     0.21100
C523        C  0.02670345  0.15703202  0.75072209     0.19200
C524        C  0.04587362  0.18495638  0.78364389    -0.17300
C525        C  0.04010467  0.21544987  0.78687065    -0.19600
C526        C  0.01580388  0.21906347  0.75666626     0.20700
C527        C  0.01290693  0.25153074  0.75714459    -0.32600
C528        C  0.98970440  0.25533355  0.72567982     0.01400
C529        C  0.46632943  0.22481117  0.69599586    -0.23900
C530        C  0.48521604  0.10014791  0.68617153    -0.28500
C531        C  0.01290895  0.09873732  0.71373667     0.07100
C532        C  0.03365919  0.12724807  0.74600731    -0.27200
H533        H  0.43521124  0.10969782  0.63696741     0.11800
H534        H  0.42674360  0.16397612  0.64141169     0.12900
H535        H  0.06589252  0.18360518  0.80651828     0.12000
H536        H  0.05595371  0.23707678  0.81202714     0.11200
H537        H  0.02983030  0.27458373  0.78081806     0.16600
H538        H  0.44751782  0.22740144  0.67261914     0.12500
H539        H  0.46871200  0.07782132  0.66167850     0.15400
H540        H  0.05405683  0.12549842  0.76800896     0.15200
C541        C  0.22415755  0.05971023  0.66409005    -0.17700
C542        C  0.19234981  0.06618057  0.66003068    -0.19900
C543        C  0.15775475  0.04817509  0.68806753     0.20800
C544        C  0.15404508  0.52157462  0.71893008    -0.02800
C545        C  0.18583957  0.51487617  0.72288112    -0.05900
C546        C  0.22198552  0.03526004  0.69642990     0.21100
C547        C  0.18181313  0.48825184  0.75381613     0.19200
C548        C  0.14504600  0.46678283  0.77871406    -0.17300
C549        C  0.11394555  0.47391613  0.77529414    -0.19600
C550        C  0.11877234  0.50192015  0.74628370     0.20700
C551        C  0.08839275  0.50996782  0.74373321    -0.32600
C552        C  0.09171430  0.03648886  0.71350195     0.01400
C553        C  0.12637204  0.05556532  0.68551594    -0.23900
C554        C  0.25562247  0.03166458  0.70387548    -0.28500
C555        C  0.25255021  0.50709986  0.73652415     0.07100
C556        C  0.21523279  0.48460755  0.76035442    -0.27200
H557        H  0.25119701  0.07494437  0.64295893     0.11800
H558        H  0.19532363  0.08597710  0.63557970     0.12900
H559        H  0.14122449  0.44577552  0.80206345     0.12000
H560        H  0.08642503  0.45797489  0.79579965     0.11200
H561        H  0.06094579  0.49434609  0.76444478     0.16600
H562        H  0.12800182  0.07476378  0.66107455     0.12500
H563        H  0.28405124  0.04781992  0.68460990     0.15400
H564        H  0.21279251  0.46478666  0.78449554     0.15200
C565        C  0.36001888  0.31778803  0.65746484    -0.17700
C566        C  0.39531034  0.35724152  0.65365224    -0.19900
C567        C  0.40091488  0.38623066  0.68162807     0.20800
C568        C  0.37161228  0.37527842  0.71470782    -0.02800
C569        C  0.33650384  0.33539419  0.71905219    -0.05900
C570        C  0.33014914  0.30678028  0.68955667     0.21100
C571        C  0.30627572  0.32465294  0.75120381     0.19200
C572        C  0.31257366  0.35345897  0.77988971    -0.17300
C573        C  0.34747479  0.39308575  0.77556663    -0.19600
C574        C  0.37656366  0.40438992  0.74255463     0.20700
C575        C  0.41040567  0.44429174  0.73672266    -0.32600
C576        C  0.43988147  0.45504792  0.70430925     0.01400
C577        C  0.43523945  0.42604017  0.67705444    -0.23900
C578        C  0.29282873  0.26823043  0.69130349    -0.28500
C579        C  0.26205160  0.25817936  0.72191638     0.07100
C580        C  0.26927800  0.28578048  0.75264922    -0.27200
H581        H  0.35560321  0.29606573  0.63477935     0.11800
H582        H  0.41772746  0.36523476  0.62829112     0.12900
H583        H  0.28981848  0.34557271  0.80485396     0.12000
H584        H  0.35119532  0.41503601  0.79746764     0.11200
H585        H  0.41484217  0.46676052  0.75834074     0.16600
H586        H  0.45856952  0.43457041  0.65245906     0.12500
H587        H  0.28652850  0.24639081  0.66777264     0.15400
H588        H  0.24496005  0.27741183  0.77601800     0.15200
C589        C  0.19091574  0.14436998  0.04100855    -0.17700
C590        C  0.15547115  0.10464079  0.04055558    -0.19900
C591        C  0.12281054  0.09158672  0.01090901     0.20800
C592        C  0.12540879  0.11904957  0.98206884    -0.02800
C593        C  0.16100426  0.15895378  0.98250527    -0.05900
C594        C  0.19421949  0.17157206  0.01177695     0.21100
C595        C  0.16430866  0.18580303  0.95227963     0.19200
C596        C  0.13153712  0.17299970  0.92299641    -0.17300
C597        C  0.09598646  0.13356386  0.92293992    -0.19600
C598        C  0.09294418  0.10644391  0.95199916     0.20700
C599        C  0.05785808  0.06687780  0.95148966    -0.32600
C600        C  0.05495101  0.03954692  0.98009400     0.01400
C601        C  0.08755588  0.05164835  0.00945649    -0.23900
C602        C  0.23083107  0.21070770  0.00992227    -0.28500
C603        C  0.23458057  0.23660931  0.97871979     0.07100
C604        C  0.20118950  0.22452515  0.95069499    -0.27200
H605        H  0.21612980  0.15363429  0.06364962     0.11800
H606        H  0.15384884  0.08402237  0.06302252     0.12900
H607        H  0.13369765  0.19333790  0.89975240     0.12000
H608        H  0.07109047  0.12415027  0.89984524     0.11200
H609        H  0.03238002  0.05723727  0.92898494     0.16600
H610        H  0.08470575  0.03041219  0.03190749     0.12500
H611        H  0.25720583  0.22066914  0.03126497     0.15400
H612        H  0.20484243  0.24507497  0.92680169     0.15200
C613        C  0.94616264  0.27298085  0.04399442    -0.17700
C614        C  0.94013989  0.30339200  0.04307919    -0.19900
C615        C  0.96031901  0.33342660  0.01234673     0.20800
C616        C  0.48763927  0.33323802  0.98288719    -0.02800
C617        C  0.49302301  0.30220326  0.98324166    -0.05900
C618        C  0.97184474  0.27163722  0.01367340     0.21100
C619        C  0.51993951  0.30195900  0.95331438     0.19200
C620        C  0.54218159  0.33315892  0.92422073    -0.17300
C621        C  0.53715055  0.36402989  0.92411244    -0.19600
C622        C  0.50960337  0.36404428  0.95292770     0.20700
C623        C  0.50406855  0.39463413  0.95253432    -0.32600
C624        C  0.47650969  0.39483126  0.98123117     0.01400
C625        C  0.95430043  0.36398002  0.01086068    -0.23900
C626        C  0.97620139  0.24006936  0.01256311    -0.28500
C627        C  0.50045826  0.23836506  0.98068565     0.07100
C628        C  0.52319336  0.26996088  0.95216165    -0.27200
H629        H  0.92993006  0.24998399  0.56782701     0.11800
H630        H  0.91952202  0.30330230  0.56636044     0.12900
H631        H  0.56288561  0.33330952  0.90105467     0.12000
H632        H  0.55439985  0.38764812  0.90111235     0.11200
H633        H  0.52158506  0.41871204  0.93001132     0.16600
H634        H  0.93385677  0.36468700  0.03368269     0.12500
H635        H  0.95935034  0.21593647  0.53510707     0.15400
H636        H  0.54266090  0.26889199  0.92837287     0.15200
C637        C  0.27553385  0.94115634  0.92119337    -0.17700
C638        C  0.30758608  0.93482654  0.92038270    -0.19900
C639        C  0.33982845  0.95209005  0.95116977     0.20800
C640        C  0.34143149  0.97830007  0.98109358    -0.02800
C641        C  0.30930933  0.98469592  0.98190729    -0.05900
C642        C  0.27494906  0.96439662  0.95323796     0.21100
C643        C  0.31094004  0.01054527  0.51227304     0.19200
C644        C  0.34606578  0.03202359  0.53940336    -0.17300
C645        C  0.37756672  0.52527063  0.53900770    -0.19600
C646        C  0.37464129  0.99751064  0.01095756     0.20700
C647        C  0.40451229  0.48878419  0.01229782    -0.32600
C648        C  0.40279075  0.46205139  0.98350183     0.01400
C649        C  0.37078670  0.94415049  0.95246174    -0.23900
C650        C  0.24025773  0.96683855  0.95816941    -0.28500
C651        C  0.24070103  0.99027276  0.99054329     0.07100
C652        C  0.27653427  0.01302045  0.51636923    -0.27200
H653        H  0.25005332  0.92623834  0.89818501     0.11800
H654        H  0.30642124  0.91549226  0.89646841     0.12900
H655        H  0.34808274  0.05250536  0.56232715     0.12000
H656        H  0.40359308  0.54095788  0.56138221     0.11200
H657        H  0.43015191  0.50375632  0.53522715     0.16600
H658        H  0.37080733  0.92521710  0.92881859     0.12500
H659        H  0.21306843  0.95067830  0.93718757     0.15400
H660        H  0.27698977  0.03207543  0.54020330     0.15200
Zr661      Zr  0.33060489  0.72672976  0.32587632     2.17500
O662        O  0.34908818  0.79318790  0.31291182    -0.51200
O663        O  0.27252577  0.71165310  0.27819386    -0.74400
O664        O  0.39232820  0.76548337  0.27511252    -0.81200
O665        O  0.28941583  0.71912602  0.44066634    -0.82900
O666        O  0.40829218  0.72365061  0.25106885    -0.78600
O667        O  0.32301365  0.76142266  0.38513794    -0.90200
O668        O  0.21862247  0.64609874  0.28114410    -0.76200
O669        O  0.30820338  0.66952878  0.28447537    -0.85700
O670        O  0.26700770  0.67176613  0.35864786    -0.84600
O671        O  0.38623122  0.71745270  0.33104663    -0.72100
O672        O  0.34410348  0.71709127  0.39686752    -0.84200
Zr673      Zr  0.32719316  0.60130614  0.38819043     2.26400
Zr674      Zr  0.36423341  0.66036710  0.28857198     2.06300
Zr675      Zr  0.28270104  0.65844939  0.42680571     2.10000
Zr676      Zr  0.24685811  0.61558448  0.31872540     1.78800
O677        O  0.29081278  0.67224564  0.50222101    -0.93000
O678        O  0.24668886  0.60108623  0.24503024    -0.40900
O679        O  0.27403727  0.61188030  0.38202988    -0.77500
O680        O  0.30085362  0.60498133  0.32007583    -0.96200
O681        O  0.38758041  0.65837934  0.35786424    -0.89500
O682        O  0.34182997  0.65429668  0.43280275    -0.92300
C683        C  0.23508078  0.68136389  0.26786079     1.01400
C684        C  0.30592111  0.75265492  0.42222901     1.14400
C685        C  0.41555690  0.75825228  0.25299271     1.05100
O686        O  0.36448740  0.65445877  0.21222513    -0.94500
O687        O  0.34521675  0.59462636  0.26749746    -0.90200
O688        O  0.32866412  0.56150454  0.32990134    -0.83400
C689        C  0.33374111  0.56360667  0.28942242     1.11800
O690        O  0.45279470  0.78376220  0.39232821    -0.96500
Zr691      Zr  0.40174688  0.71236811  0.40111774     1.88900
O692        O  0.39973299  0.62736198  0.42104360    -0.73100
O693        O  0.42656510  0.66177809  0.30385887    -0.52400
O694        O  0.47321464  0.73642843  0.37845567    -0.97000
O695        O  0.39920210  0.74631737  0.46230775    -0.54300
O696        O  0.42048743  0.68419213  0.45282308    -0.73600
C697        C  0.42654912  0.65801223  0.44440651     0.98700
O698        O  0.32176367  0.54311589  0.41363448    -0.62400
O699        O  0.20745321  0.63099228  0.42460525    -0.57200
O700        O  0.26933213  0.55931456  0.43897141    -0.93900
O701        O  0.24295346  0.59339147  0.46120801    -0.92300
O702        O  0.17469190  0.58686106  0.34380154    -0.92700
O703        O  0.19651761  0.54398059  0.32011996    -0.91500
C704        C  0.24270170  0.56210080  0.46034898     1.17600
H705        H  0.24509120  0.67630291  0.35940971     0.33500
H706        H  0.28529268  0.58023140  0.30492536     0.44400
H707        H  0.34555444  0.64998137  0.46189338     0.37900
H708        H  0.41437591  0.74009324  0.32452852     0.34400
H709        H  0.24804029  0.62230662  0.22892222     0.26200
H710        H  0.43068785  0.65070194  0.27839510     0.32100
H711        H  0.47380553  0.71279892  0.37810030     0.38000
H712        H  0.15702661  0.57944095  0.31800462     0.32500
H713        H  0.19695635  0.62025244  0.45317569     0.31300
H714        H  0.29633593  0.65371926  0.01475596     0.33000
H715        H  0.37193380  0.72651291  0.47648248     0.32000
H716        H  0.20949989  0.53480216  0.33917276     0.36000
H717        H  0.30025694  0.52126446  0.39511145     0.28700
H718        H  0.35214536  0.79650175  0.28197979     0.33000
H719        H  0.43637953  0.79281036  0.37947122     0.35800
H720        H  0.20697075  0.65464418  0.42273789     0.28400
H721        H  0.34897039  0.54734392  0.40571932     0.41300
H722        H  0.34212023  0.65738197  0.20207707     0.31300
H723        H  0.27463257  0.60586958  0.24004513     0.39000
H724        H  0.39568552  0.76675695  0.45156713     0.30800
H725        H  0.44992833  0.69046033  0.30396282     0.30900
H726        H  0.37841990  0.81156886  0.32393293     0.31100
C727        C  0.47588962  0.93018032  0.48267895     0.80300
N728        N  0.43866708  0.92730707  0.48223516    -0.78000
C729        C  0.44037732  0.96128363  0.48140365     0.82800
N730        N  0.47846924  0.49694199  0.48104865    -0.77900
C731        C  0.01505730  0.49992045  0.48177219     0.82900
N732        N  0.01392787  0.96659668  0.48257382    -0.79600
N733        N  0.20643091  0.49418564  0.99551229    -0.03400
C734        C  0.16958316  0.96933081  0.01719250    -0.00800
C735        C  0.14715134  0.98592308  0.01932792    -0.23700
C736        C  0.17109602  0.52195062  0.99825107    -0.23900
C737        C  0.20769225  0.52653960  0.48409110    -0.00900
H738        H  0.11722813  0.97375548  0.03532816     0.12900
H739        H  0.16291528  0.54279396  0.49430341     0.13000
N740        N  0.27384852  0.77467313  0.47306149    -0.03400
C741        C  0.28506820  0.80914687  0.99082507    -0.00800
C742        C  0.32497906  0.83970924  0.97625213    -0.23700
C743        C  0.33785622  0.82315439  0.44790663    -0.23900
C744        C  0.30560404  0.78294141  0.44669148    -0.00900
H745        H  0.34271474  0.87065341  0.98515402     0.12900
H746        H  0.36766498  0.83862809  0.43087752     0.13000
N747        N  0.50099961  0.70386775  0.47589096    -0.03400
C748        C  0.03497095  0.70276175  0.98450687    -0.00800
C749        C  0.02363935  0.66487446  0.97559079    -0.23700
C750        C  0.48197279  0.64277887  0.46004204    -0.23900
C751        C  0.46846943  0.66741725  0.46054026    -0.00900
H752        H  0.04344155  0.65437532  0.97961283     0.12900
H753        H  0.46381385  0.61222481  0.44940295     0.13000
Zr754      Zr  0.16199183  0.76959861  0.07542193     2.17500
O755        O  0.14338516  0.70317840  0.06216899    -0.51200
O756        O  0.22046271  0.78412793  0.02891887    -0.74400
O757        O  0.09980987  0.72985530  0.02565500    -0.81200
O758        O  0.20639848  0.77766352  0.18855070    -0.82900
O759        O  0.08360528  0.77134238  0.00108437    -0.78600
O760        O  0.17004951  0.73486216  0.13386461    -0.90200
O761        O  0.27447065  0.84963145  0.03243069    -0.76200
O762        O  0.18309041  0.82589129  0.03313654    -0.85700
O763        O  0.22564238  0.82490029  0.10774864    -0.85400
O764        O  0.10627458  0.77881660  0.08081330    -0.72100
O765        O  0.14916164  0.77930278  0.14649624    -0.84200
Zr766      Zr  0.16493040  0.89457963  0.13758381     2.26400
Zr767      Zr  0.12730806  0.83524103  0.03734835     2.06300
Zr768      Zr  0.21086738  0.83767529  0.17649289     2.10000
Zr769      Zr  0.24484013  0.88020218  0.06659781     1.78800
O770        O  0.20363377  0.82302600  0.25164354    -0.93000
O771        O  0.24160737  0.89212386  0.99273199    -0.40900
O772        O  0.22528145  0.89065832  0.13399440    -0.77500
O773        O  0.19056961  0.89059403  0.06907923    -0.96200
O774        O  0.10515812  0.83713152  0.10723197    -0.89500
O775        O  0.15173541  0.84193564  0.18193345    -0.92300
C776        C  0.25825770  0.81431935  0.01947946     1.01400
C777        C  0.18869590  0.74387461  0.17017738     1.14400
C778        C  0.07637424  0.73680164  0.00353530     1.05100
O779        O  0.13425507  0.84003201  0.96085437    -0.94500
O780        O  0.14543988  0.90130827  0.01796599    -0.90200
O781        O  0.16347752  0.93493655  0.08014154    -0.83400
C782        C  0.15765066  0.93258685  0.03980813     1.11800
O783        O  0.04333531  0.71211118  0.14210975    -0.96500
Zr784      Zr  0.09145381  0.78380982  0.15098640     1.88900
O785        O  0.09200886  0.86773841  0.17003936    -0.73100
O786        O  0.06268157  0.83231437  0.03898007    -0.52400
O787        O  0.02171735  0.76487697  0.12814906    -0.97000
O788        O  0.09309213  0.75046575  0.21316759    -0.54300
O789        O  0.07201726  0.81139141  0.20254412    -0.73600
C790        C  0.06531846  0.83704411  0.19340736     0.98700
O791        O  0.17061370  0.95231194  0.16419357    -0.62400
O792        O  0.28662650  0.86774698  0.17280976    -0.57200
O793        O  0.22367392  0.93667741  0.18765239    -0.93900
O794        O  0.24971071  0.90263892  0.21131082    -0.92300
O795        O  0.32075950  0.91562854  0.08066330    -0.92700
O796        O  0.29369054  0.95149357  0.07483225    -0.91500
C797        C  0.25006654  0.93400447  0.20975627     1.17600
H798        H  0.24753569  0.82042493  0.10834171     0.33500
H799        H  0.20589601  0.91535236  0.05390231     0.44400
H800        H  0.14792015  0.84626707  0.21098267     0.37900
H801        H  0.07801375  0.75588223  0.07453820     0.34400
H802        H  0.23939288  0.87015302  0.97726489     0.26200
H803        H  0.04390339  0.81105645  0.05934870     0.32100
H804        H  0.01457237  0.74819202  0.10274557     0.38000
H805        H  0.32354986  0.89687194  0.09710136     0.32500
H806        H  0.29720633  0.87766976  0.20166011     0.31300
H807        H  0.19178642  0.83682802  0.26358573     0.33000
H808        H  0.11838218  0.77131207  0.22928352     0.32000
H809        H  0.27774265  0.95933793  0.09106499     0.36000
H810        H  0.19146567  0.97404055  0.14519909     0.28700
H811        H  0.14089890  0.70024152  0.03120400     0.33000
H812        H  0.06161884  0.70397069  0.13237095     0.35800
H813        H  0.28844471  0.84504543  0.16919196     0.28400
H814        H  0.14313318  0.94787706  0.15724109     0.41300
H815        H  0.12468908  0.85667427  0.45217213     0.31300
H816        H  0.21377641  0.88772483  0.98837907     0.39000
H817        H  0.10017720  0.73215767  0.20351610     0.30800
H818        H  0.07009871  0.85709569  0.05279765     0.30900
H819        H  0.11384786  0.68470624  0.07258719     0.31100
C820        C  0.05366383  0.53600712  0.20694826     0.80300
N821        N  0.51643231  0.99978907  0.20280830    -0.78000
C822        C  0.47899632  0.99531222  0.20306841     0.82800
N823        N  0.47846931  0.52760805  0.20721332    -0.77900
C824        C  0.01550507  0.56450554  0.21070209     0.82900
N825        N  0.05351610  0.56885075  0.21135796    -0.79600
N826        N  0.28603086  0.00236323  0.24398655    -0.03400
C827        C  0.32217222  0.52692520  0.26694776    -0.00800
C828        C  0.34413082  0.50998337  0.27084679    -0.23700
C829        C  0.32066371  0.97400286  0.24964388    -0.23900
C830        C  0.28469946  0.96971057  0.23371438    -0.00900
H831        H  0.37340735  0.52190986  0.28813292     0.12900
H832        H  0.32865702  0.95293553  0.24689688     0.13000
N833        N  0.99009906  0.79048119  0.22305085    -0.03400
C834        C  0.45678341  0.79212219  0.23334572    -0.00800
C835        C  0.46897666  0.83059947  0.22635916    -0.23700
C836        C  0.01051389  0.85258549  0.21059314    -0.23900
C837        C  0.02314239  0.82729999  0.20902744    -0.00900
H838        H  0.44995551  0.84168004  0.23216083     0.12900
H839        H  0.02935672  0.88363488  0.20168685     0.13000
N840        N  0.22138222  0.72089687  0.21885719    -0.03400
C841        C  0.20888781  0.68666679  0.23826295    -0.00800
C842        C  0.16781110  0.65678362  0.22542393    -0.23700
C843        C  0.15520217  0.67367484  0.19714476    -0.23900
C844        C  0.18888905  0.71328438  0.19399409    -0.00900
H845        H  0.14894213  0.62610436  0.23561400     0.12900
H846        H  0.12456016  0.65894695  0.18167268     0.13000
C847        C  0.45188941  0.63183565  0.16157220    -0.17700
C848        C  0.44693587  0.66271941  0.16417684    -0.19900
C849        C  0.46872827  0.69225718  0.19513841     0.20800
C850        C  0.99465863  0.68998646  0.22469819    -0.02800
C851        C  0.99985220  0.65887176  0.22193632    -0.05900
C852        C  0.47884031  0.63009728  0.18978616     0.21100
C853        C  0.02668417  0.65702627  0.25071052     0.19200
C854        C  0.04584754  0.68494857  0.28363376    -0.17300
C855        C  0.04008232  0.71544401  0.28685265    -0.19600
C856        C  0.01578990  0.71905993  0.25664069     0.20700
C857        C  0.01289761  0.75152888  0.25711530    -0.32600
C858        C  0.98970538  0.75533751  0.22564518     0.01400
C859        C  0.46634330  0.72481490  0.19599457    -0.23900
C860        C  0.48526091  0.60016844  0.18618272    -0.28500
C861        C  0.01290258  0.59873535  0.21373120     0.07100
C862        C  0.03364347  0.62724499  0.24600249    -0.27200
H863        H  0.43527835  0.60972521  0.13694827     0.11800
H864        H  0.42679329  0.66399326  0.14139007     0.12900
H865        H  0.06586014  0.68359528  0.30651467     0.12000
H866        H  0.05592707  0.73707019  0.31201033     0.11200
H867        H  0.02981709  0.77457955  0.28079173     0.16600
H868        H  0.44753441  0.72740458  0.17261381     0.12500
H869        H  0.46876748  0.57784354  0.16168640     0.15400
H870        H  0.05403659  0.62549588  0.26801119     0.15200
C871        C  0.22413737  0.55968354  0.16407792    -0.17700
C872        C  0.19232566  0.56614941  0.16001931    -0.19900
C873        C  0.15773751  0.54815129  0.18806498     0.20800
C874        C  0.15406059  0.02157759  0.21891016    -0.02800
C875        C  0.18585619  0.01488017  0.22285464    -0.05900
C876        C  0.22197462  0.53524216  0.19642338     0.21100
C877        C  0.18183555  0.98825907  0.25379023     0.19200
C878        C  0.14507319  0.96679091  0.27869382    -0.17300
C879        C  0.11397346  0.97392507  0.27528229    -0.19600
C880        C  0.11879553  0.00192765  0.24627324     0.20700
C881        C  0.08841818  0.00997808  0.24373475    -0.32600
C882        C  0.09171001  0.53648199  0.21352292     0.01400
C883        C  0.12635471  0.55554289  0.18551963    -0.23900
C884        C  0.25561604  0.53165180  0.20386903    -0.28500
C885        C  0.25257096  0.00710991  0.23649174     0.07100
C886        C  0.21525630  0.98461693  0.26032438    -0.27200
H887        H  0.25117225  0.57491383  0.14294093     0.11800
H888        H  0.19529255  0.58593890  0.13556335     0.12900
H889        H  0.14125605  0.94578515  0.30204275     0.12000
H890        H  0.08645771  0.95798643  0.29579400     0.11200
H891        H  0.06097962  0.99436211  0.26445724     0.16600
H892        H  0.12797601  0.57473279  0.16107274     0.12500
H893        H  0.28404150  0.54780418  0.18459859     0.15400
H894        H  0.21282028  0.96479867  0.28446640     0.15200
C895        C  0.36008355  0.81779350  0.15759516    -0.17700
C896        C  0.39537000  0.85724883  0.15378651    -0.19900
C897        C  0.40094288  0.88624052  0.18173679     0.20800
C898        C  0.37161522  0.87529054  0.21479015    -0.02800
C899        C  0.33650597  0.83540597  0.21912545    -0.05900
C900        C  0.33018253  0.80678867  0.18965239     0.21100
C901        C  0.30624840  0.82466630  0.25124416     0.19200
C902        C  0.31252179  0.85347365  0.27991385    -0.17300
C903        C  0.34742835  0.89310031  0.27560430    -0.19600
C904        C  0.37654414  0.90440385  0.24261888     0.20700
C905        C  0.41039168  0.94430586  0.23679513    -0.32600
C906        C  0.43988814  0.95505881  0.20440360     0.01400
C907        C  0.43526379  0.92604968  0.17716514    -0.23900
C908        C  0.29286108  0.76823873  0.19138168    -0.28500
C909        C  0.26204937  0.75819226  0.22195137     0.07100
C910        C  0.26924685  0.78579466  0.25266947    -0.27200
H911        H  0.35569364  0.79606831  0.13492928     0.11800
H912        H  0.41780943  0.86524101  0.12844841     0.12900
H913        H  0.28974435  0.84558839  0.30485419     0.12000
H914        H  0.35113145  0.91505098  0.29749302     0.11200
H915        H  0.41481341  0.96677657  0.25840047     0.16600
H916        H  0.45860844  0.93457826  0.15258589     0.12500
H917        H  0.28658668  0.74639657  0.16786604     0.15400
H918        H  0.24490579  0.77742760  0.27600952     0.15200
C919        C  0.19088562  0.64439465  0.54102498    -0.17700
C920        C  0.15543982  0.60466606  0.54058023    -0.19900
C921        C  0.12278522  0.59160360  0.51092399     0.20800
C922        C  0.12538643  0.61905963  0.48207106    -0.02800
C923        C  0.16098080  0.65896470  0.48250266    -0.05900
C924        C  0.19419442  0.67158863  0.51177831     0.21100
C925        C  0.16428672  0.68580839  0.45226809     0.19200
C926        C  0.13151780  0.67299789  0.42297904    -0.17300
C927        C  0.09597100  0.63355966  0.42292318    -0.19600
C928        C  0.09292782  0.60644533  0.45199172     0.20700
C929        C  0.05784806  0.56687578  0.45148033    -0.32600
C930        C  0.05494046  0.53955003  0.48009359     0.01400
C931        C  0.08753615  0.55166246  0.50947138    -0.23900
C932        C  0.23080936  0.71072128  0.50991370    -0.28500
C933        C  0.23456115  0.73661692  0.47870281     0.07100
C934        C  0.20116869  0.72453036  0.45067826    -0.27200
H935        H  0.21609732  0.65366441  0.56367097     0.11800
H936        H  0.15381437  0.58405361  0.56305831     0.12900
H937        H  0.13367916  0.69333128  0.39972773     0.12000
H938        H  0.07107925  0.62413966  0.39982137     0.11200
H939        H  0.03237573  0.55722809  0.42896601     0.16600
H940        H  0.08468462  0.53043164  0.53193117     0.12500
H941        H  0.25718425  0.72068554  0.53125732     0.15400
H942        H  0.20482266  0.74507636  0.42677937     0.15200
C943        C  0.94615369  0.77296601  0.54402043    -0.17700
C944        C  0.94013245  0.80337860  0.54311361    -0.19900
C945        C  0.96030899  0.83341580  0.51238320     0.20800
C946        C  0.48763834  0.83323651  0.48291323    -0.02800
C947        C  0.49302441  0.80220314  0.48326520    -0.05900
C948        C  0.97183342  0.77162435  0.51369429     0.21100
C949        C  0.51992782  0.80195235  0.45332571     0.19200
C950        C  0.54215909  0.83314745  0.42422524    -0.17300
C951        C  0.53712310  0.86401547  0.42411694    -0.19600
C952        C  0.50958568  0.86403419  0.45294236     0.20700
C953        C  0.50404658  0.89462150  0.45254949    -0.32600
C954        C  0.47650283  0.89482637  0.48126068     0.01400
C955        C  0.95429522  0.86397323  0.51090718    -0.23900
C956        C  0.97619045  0.74005662  0.51257656    -0.28500
C957        C  0.50045085  0.73836048  0.48069800     0.07100
C958        C  0.52317731  0.76995149  0.45216707    -0.27200
H959        H  0.92990607  0.74997662  0.06779909     0.11800
H960        H  0.91949929  0.80329572  0.06633170     0.12900
H961        H  0.56285575  0.83329490  0.40105208     0.12000
H962        H  0.55436113  0.88762820  0.40110922     0.11200
H963        H  0.52154981  0.91869275  0.43001702     0.16600
H964        H  0.93385852  0.86468230  0.53373673     0.12500
H965        H  0.95933427  0.71593225  0.03508492     0.15400
H966        H  0.54263548  0.76887767  0.42837069     0.15200
C967        C  0.27553249  0.44115410  0.42119814    -0.17700
C968        C  0.30758617  0.43482617  0.42038708    -0.19900
C969        C  0.33982702  0.45208857  0.45117549     0.20800
C970        C  0.34142984  0.47829884  0.48109846    -0.02800
C971        C  0.30931014  0.48469818  0.48190804    -0.05900
C972        C  0.27494792  0.46439576  0.45324124     0.21100
C973        C  0.31093791  0.51053358  0.01231229     0.19200
C974        C  0.34605975  0.53200394  0.03944865    -0.17300
C975        C  0.37756529  0.02526687  0.03900784    -0.19600
C976        C  0.37463758  0.49750724  0.51096477     0.20700
C977        C  0.40450273  0.98878243  0.51228479    -0.32600
C978        C  0.40278030  0.96204404  0.48349673     0.01400
C979        C  0.37078389  0.44414751  0.45246955    -0.23900
C980        C  0.24025605  0.46683749  0.45817306    -0.28500
C981        C  0.24070205  0.49027665  0.49054333     0.07100
C982        C  0.27653302  0.51301022  0.01640825    -0.27200
H983        H  0.25005184  0.42623512  0.39819004     0.11800
H984        H  0.30642240  0.41549245  0.39647276     0.12900
H985        H  0.34807212  0.55247737  0.06238120     0.12000
H986        H  0.40359171  0.04095375  0.06138234     0.11200
H987        H  0.43016362  0.00376985  0.03521013     0.16600
H988        H  0.37080705  0.42521686  0.42882453     0.12500
H989        H  0.21306455  0.45067330  0.43719437     0.15400
H990        H  0.27698515  0.53205921  0.04024796     0.15200
Zr991      Zr  0.33060670  0.72673165  0.82586664     2.17500
O992        O  0.34907223  0.79318153  0.81288584    -0.51200
O993        O  0.27252811  0.71164816  0.77817982    -0.74400
O994        O  0.39232529  0.76548070  0.77510226    -0.81200
O995        O  0.28940344  0.71912274  0.94064525    -0.82900
O996        O  0.40827113  0.72363995  0.75104161    -0.78600
O997        O  0.32302994  0.76143182  0.88513197    -0.90200
O998        O  0.21860909  0.64610085  0.78117014    -0.76200
O999        O  0.30820131  0.66952901  0.78446877    -0.85700
O1000       O  0.26701230  0.67177014  0.85864299    -0.84600
O1001       O  0.38623528  0.71745562  0.83103323    -0.72100
O1002       O  0.34410511  0.71709414  0.89685720    -0.84200
Zr1003     Zr  0.32719713  0.60130943  0.88818486     2.26400
Zr1004     Zr  0.36422863  0.66036477  0.78856250     2.06300
Zr1005     Zr  0.28270506  0.65845205  0.92679927     2.10000
Zr1006     Zr  0.24685972  0.61558651  0.81872304     1.78800
O1007       O  0.29080825  0.67228294  0.00220709    -0.93000
O1008       O  0.24670582  0.60111453  0.74502054    -0.40900
O1009       O  0.27404173  0.61188331  0.88202557    -0.77500
O1010       O  0.30085201  0.60498077  0.82007203    -0.96200
O1011       O  0.38758089  0.65838305  0.85785375    -0.89500
O1012       O  0.34183512  0.65430110  0.93279830    -0.92300
C1013       C  0.23507469  0.68136120  0.76786598     1.01400
C1014       C  0.30592413  0.75265796  0.92221713     1.14400
C1015       C  0.41554483  0.75824479  0.75297418     1.05100
O1016       O  0.36449032  0.65444387  0.71221779    -0.94500
O1017       O  0.34520646  0.59462044  0.76749510    -0.90200
O1018       O  0.32865961  0.56150217  0.82990030    -0.83400
C1019       C  0.33373252  0.56360214  0.78942158     1.11800
O1020       O  0.45280453  0.78376681  0.89232165    -0.96500
Zr1021     Zr  0.40174872  0.71237294  0.90110773     1.88900
O1022       O  0.39974223  0.62737074  0.92102527    -0.73100
O1023       O  0.42656525  0.66178596  0.80384974    -0.52400
O1024       O  0.47322669  0.73644149  0.87847664    -0.97000
O1025       O  0.39917793  0.74631657  0.96229065    -0.54300
O1026       O  0.42049241  0.68419748  0.95280936    -0.73600
C1027       C  0.42655801  0.65802106  0.94438790     0.98700
O1028       O  0.32176666  0.54311436  0.91361496    -0.62400
O1029       O  0.20744901  0.63096098  0.92457748    -0.57200
O1030       O  0.26934083  0.55931225  0.93896782    -0.93900
O1031       O  0.24296935  0.59339447  0.96120686    -0.92300
O1032       O  0.17469047  0.58683602  0.84380858    -0.92700
O1033       O  0.19653286  0.54398187  0.82009184    -0.91500
C1034       C  0.24271331  0.56210133  0.96034706     1.17600
H1035       H  0.24510219  0.67630735  0.85940623     0.33500
H1036       H  0.28528633  0.58022855  0.80492342     0.44400
H1037       H  0.34555909  0.64998872  0.96188425     0.37900
H1038       H  0.41438129  0.74009428  0.82451110     0.34400
H1039       H  0.24804901  0.62233371  0.72892155     0.26200
H1040       H  0.43068366  0.65070335  0.77839142     0.32100
H1041       H  0.47380144  0.71280254  0.87806593     0.38000
H1042       H  0.15702576  0.57943372  0.81801348     0.32500
H1043       H  0.19694694  0.62021559  0.95314504     0.31300
H1044       H  0.29648086  0.65376479  0.51473220     0.33000
H1045       H  0.37188871  0.72651838  0.97644401     0.32000
H1046       H  0.20943388  0.53481182  0.83927930     0.36000
H1047       H  0.30023653  0.52126147  0.89510992     0.28700
H1048       H  0.35214325  0.79649650  0.78194923     0.33000
H1049       H  0.43639039  0.79281981  0.87947954     0.35800
H1050       H  0.20694947  0.65460125  0.92270628     0.28400
H1051       H  0.34895984  0.54732865  0.90566971     0.41300
H1052       H  0.34215909  0.65741117  0.70205798     0.31300
H1053       H  0.27465270  0.60590523  0.74003133     0.39000
H1054       H  0.39569419  0.76677390  0.95154426     0.30800
H1055       H  0.44992754  0.69047175  0.80394293     0.30900
H1056       H  0.37839252  0.81156537  0.82391641     0.31100
C1057       C  0.47590197  0.93018832  0.98265797     0.80300
N1058       N  0.43867932  0.92731516  0.98222060    -0.78000
C1059       C  0.44038956  0.96129191  0.98139673     0.82800
N1060       N  0.47847632  0.49695034  0.98103634    -0.77900
C1061       C  0.01506892  0.49992453  0.98173331     0.82900
N1062       N  0.01392286  0.96659518  0.98257499    -0.79600
N1063       N  0.20642747  0.49418542  0.49550970    -0.03400
C1064       C  0.16958016  0.96932849  0.51718413    -0.00800
C1065       C  0.14714783  0.98592018  0.51932089    -0.23700
C1066       C  0.17108776  0.52194654  0.49825758    -0.23900
C1067       C  0.20770048  0.52654120  0.98408945    -0.00900
H1068       H  0.11722755  0.97375440  0.53532635     0.12900
H1069       H  0.16292581  0.54279894  0.99429127     0.13000
N1070       N  0.27385482  0.77467312  0.97305741    -0.03400
C1071       C  0.28506266  0.80914972  0.49082384    -0.00800
C1072       C  0.32497193  0.83971071  0.47624654    -0.23700
C1073       C  0.33786392  0.82315577  0.94790851    -0.23900
C1074       C  0.30561013  0.78294343  0.94668621    -0.00900
H1075       H  0.34270787  0.87065546  0.48514518     0.12900
H1076       H  0.36767341  0.83863111  0.93088069     0.13000
N1077       N  0.50100613  0.70387357  0.97588032    -0.03400
C1078       C  0.03497520  0.70276035  0.48451577    -0.00800
C1079       C  0.02363810  0.66486779  0.47561956    -0.23700
C1080       C  0.48198379  0.64278961  0.96001163    -0.23900
C1081       C  0.46847875  0.66742643  0.96051970    -0.00900
H1082       H  0.04343759  0.65436695  0.47965314     0.12900
H1083       H  0.46382761  0.61223896  0.94936160     0.13000
Zr1084     Zr  0.16199368  0.76960471  0.57542776     2.17500
O1085       O  0.14336936  0.70317610  0.56219498    -0.51200
O1086       O  0.22046193  0.78413420  0.52892258    -0.74400
O1087       O  0.09982077  0.72986350  0.52565356    -0.81200
O1088       O  0.20638719  0.77765191  0.68854760    -0.82900
O1089       O  0.08360462  0.77134382  0.50109020    -0.78600
O1090       O  0.17004468  0.73485414  0.63385815    -0.90200
O1091       O  0.27446995  0.84963837  0.53243245    -0.76200
O1092       O  0.18309107  0.82589911  0.53314555    -0.85700
O1093       O  0.22564561  0.82490636  0.60775343    -0.85400
O1094       O  0.10627422  0.77881940  0.58081912    -0.72100
O1095       O  0.14915651  0.77930190  0.64650139    -0.84200
Zr1096     Zr  0.16492407  0.89458157  0.63758915     2.26400
Zr1097     Zr  0.12730394  0.83524208  0.53735613     2.06300
Zr1098     Zr  0.21086161  0.83767112  0.67649782     2.10000
Zr1099     Zr  0.24484112  0.88021097  0.56660507     1.78800
O1100       O  0.20364071  0.82300060  0.75164283    -0.93000
O1101       O  0.24160690  0.89213449  0.49274026    -0.40900
O1102       O  0.22527459  0.89065725  0.63400291    -0.77500
O1103       O  0.19056503  0.89059524  0.56908693    -0.96200
O1104       O  0.10515212  0.83713247  0.60723891    -0.89500
O1105       O  0.15173199  0.84193625  0.68193709    -0.92300
C1106       C  0.25825580  0.81432549  0.51948067     1.01400
C1107       C  0.18868728  0.74386358  0.67017216     1.14400
C1108       C  0.07637969  0.73680525  0.50353821     1.05100
O1109       O  0.13423789  0.84000929  0.46086149    -0.94500
O1110       O  0.14543805  0.90130693  0.51796387    -0.90200
O1111       O  0.16347295  0.93493680  0.58013894    -0.83400
C1112       C  0.15764892  0.93258643  0.53980408     1.11800
O1113       O  0.04334890  0.71211134  0.64209649    -0.96500
Zr1114     Zr  0.09144952  0.78381065  0.65099086     1.88900
O1115       O  0.09200264  0.86773740  0.67005028    -0.73100
O1116       O  0.06267966  0.83232073  0.53900506    -0.52400
O1117       O  0.02170904  0.76487174  0.62816170    -0.97000
O1118       O  0.09308834  0.75047842  0.71317995    -0.54300
O1119       O  0.07201092  0.81138854  0.70255137    -0.73600
C1120       C  0.06531250  0.83704201  0.69341758     0.98700
O1121       O  0.17060737  0.95231411  0.66420245    -0.62400
O1122       O  0.28662316  0.86775906  0.67281678    -0.57200
O1123       O  0.22366831  0.93668080  0.68765356    -0.93900
O1124       O  0.24969424  0.90263384  0.71131652    -0.92300
O1125       O  0.32076126  0.91565400  0.58068002    -0.92700
O1126       O  0.29367242  0.95150888  0.57480171    -0.91500
C1127       C  0.25005559  0.93400233  0.70975989     1.17600
H1128       H  0.24753910  0.82043151  0.60834540     0.33500
H1129       H  0.20589111  0.91535327  0.55390963     0.44400
H1130       H  0.14791659  0.84626707  0.71098501     0.37900
H1131       H  0.07801954  0.75588783  0.57454197     0.34400
H1132       H  0.23939570  0.87016736  0.47727370     0.26200
H1133       H  0.04389940  0.81105994  0.55937492     0.32100
H1134       H  0.01456819  0.74819343  0.60275016     0.38000
H1135       H  0.32355487  0.89690515  0.59712974     0.32500
H1136       H  0.29719571  0.87766761  0.70167208     0.31300
H1137       H  0.19170598  0.83672543  0.76358420     0.33000
H1138       H  0.11838905  0.77132605  0.72928812     0.32000
H1139       H  0.27772826  0.95935009  0.59105112     0.36000
H1140       H  0.19145580  0.97404415  0.64520677     0.28700
H1141       H  0.14088904  0.70023623  0.53123021     0.33000
H1142       H  0.06163247  0.70398814  0.63230679     0.35800
H1143       H  0.28844698  0.84506345  0.66918246     0.28400
H1144       H  0.14312339  0.94787687  0.65725389     0.41300
H1145       H  0.12468926  0.85668603  0.95216906     0.31300
H1146       H  0.21377372  0.88773266  0.48838765     0.39000
H1147       H  0.10015836  0.73216260  0.70353066     0.30800
H1148       H  0.07009900  0.85709970  0.55282369     0.30900
H1149       H  0.11382976  0.68471153  0.57260777     0.31100
C1150       C  0.05365421  0.53600525  0.70690802     0.80300
N1151       N  0.51642234  0.99978063  0.70271135    -0.78000
C1152       C  0.47898486  0.99530107  0.70296043     0.82800
N1153       N  0.47846247  0.52759638  0.70716152    -0.77900
C1154       C  0.01549051  0.56449817  0.71066040     0.82900
N1155       N  0.05350188  0.56884521  0.71132872    -0.79600
N1156       N  0.28601930  0.00235402  0.74400315    -0.03400
C1157       C  0.32215981  0.52691975  0.76694918    -0.00800
C1158       C  0.34412089  0.50998000  0.77084161    -0.23700
C1159       C  0.32065609  0.97399648  0.74964022    -0.23900
C1160       C  0.28468904  0.96970451  0.73372018    -0.00900
H1161       H  0.37340080  0.52190837  0.78812197     0.12900
H1162       H  0.32865145  0.95293127  0.74688216     0.13000
N1163       N  0.99009421  0.79047730  0.72306301    -0.03400
C1164       C  0.45677459  0.79211427  0.73333353    -0.00800
C1165       C  0.46896414  0.83058910  0.72633918    -0.23700
C1166       C  0.01050006  0.85257659  0.71058954    -0.23900
C1167       C  0.02313562  0.82729605  0.70903755    -0.00900
H1168       H  0.44993716  0.84166576  0.73212705     0.12900
H1169       H  0.02933880  0.88362398  0.70167595     0.13000
N1170       N  0.22137908  0.72088461  0.71884228    -0.03400
C1171       C  0.20888094  0.68666021  0.73826483    -0.00800
C1172       C  0.16779779  0.65677839  0.72544106    -0.23700
C1173       C  0.15518787  0.67366560  0.69715674    -0.23900
C1174       C  0.18888085  0.71327182  0.69398775    -0.00900
H1175       H  0.14892459  0.62610330  0.73564605     0.12900
H1176       H  0.12454028  0.65893834  0.68169635     0.13000
C1177       C  0.45186302  0.63181952  0.66160297    -0.17700
C1178       C  0.44691351  0.66270495  0.66420856    -0.19900
C1179       C  0.46872016  0.69224957  0.69516025     0.20800
C1180       C  0.99465559  0.68998350  0.72469892    -0.02800
C1181       C  0.99984444  0.65886632  0.72193052    -0.05900
C1182       C  0.47882463  0.63008661  0.68980561     0.21100
C1183       C  0.02667829  0.65701675  0.75069772     0.19200
C1184       C  0.04584865  0.68493836  0.78362157    -0.17300
C1185       C  0.04008530  0.71543505  0.78684915    -0.19600
C1186       C  0.01579022  0.71905470  0.75664339     0.20700
C1187       C  0.01289881  0.75152501  0.75712410    -0.32600
C1188       C  0.98970202  0.75533432  0.72565865     0.01400
C1189       C  0.46633598  0.72480694  0.69601521    -0.23900
C1190       C  0.48523983  0.60015517  0.68619787    -0.28500
C1191       C  0.01288520  0.59872530  0.71370740     0.07100
C1192       C  0.03363244  0.62723242  0.74598098    -0.27200
H1193       H  0.43523996  0.60970298  0.63698663     0.11800
H1194       H  0.42676160  0.66397405  0.64143022     0.12900
H1195       H  0.06586402  0.68358279  0.80649674     0.12000
H1196       H  0.05593437  0.73705975  0.81200754     0.11200
H1197       H  0.02982100  0.77457467  0.78080109     0.16600
H1198       H  0.44752060  0.72739205  0.67263852     0.12500
H1199       H  0.46873766  0.57782867  0.66170440     0.15400
H1200       H  0.05402828  0.62548044  0.76798289     0.15200
C1201       C  0.22413789  0.55969360  0.66408927    -0.17700
C1202       C  0.19232881  0.56616202  0.66002658    -0.19900
C1203       C  0.15773591  0.54816122  0.68806590     0.20800
C1204       C  0.15406159  0.02158371  0.71892676    -0.02800
C1205       C  0.18585447  0.01488335  0.72287432    -0.05900
C1206       C  0.22196955  0.53524981  0.69643498     0.21100
C1207       C  0.18182620  0.98825538  0.75380558     0.19200
C1208       C  0.14505900  0.96678457  0.77870264    -0.17300
C1209       C  0.11395968  0.97391915  0.77528561    -0.19600
C1210       C  0.11878825  0.00192652  0.74627934     0.20700
C1211       C  0.08840913  0.00997420  0.74373170    -0.32600
C1212       C  0.09169774  0.53648079  0.71350037     0.01400
C1213       C  0.12635356  0.55555200  0.68551203    -0.23900
C1214       C  0.25560789  0.53165579  0.70388263    -0.28500
C1215       C  0.25256216  0.00710463  0.73651299     0.07100
C1216       C  0.21524447  0.98460958  0.76034147    -0.27200
H1217       H  0.25117539  0.57492416  0.64295553     0.11800
H1218       H  0.19530023  0.58595383  0.63557098     0.12900
H1219       H  0.14123643  0.94577466  0.80204904     0.12000
H1220       H  0.08643857  0.95797629  0.79579015     0.11200
H1221       H  0.06096190  0.99435068  0.76444276     0.16600
H1222       H  0.12798205  0.57474687  0.66106687     0.12500
H1223       H  0.28403517  0.54780840  0.68461474     0.15400
H1224       H  0.21280334  0.96478601  0.78447970     0.15200
C1225       C  0.36004157  0.81777561  0.65749850    -0.17700
C1226       C  0.39533065  0.85722951  0.65368187    -0.19900
C1227       C  0.40092342  0.88622355  0.68164198     0.20800
C1228       C  0.37161283  0.87527633  0.71471218    -0.02800
C1229       C  0.33650501  0.83539214  0.71905921    -0.05900
C1230       C  0.33016096  0.80677294  0.68957724     0.21100
C1231       C  0.30626656  0.82465576  0.75119805     0.19200
C1232       C  0.31255565  0.85346623  0.77987215    -0.17300
C1233       C  0.34745793  0.89309268  0.77554823    -0.19600
C1234       C  0.37655544  0.90439247  0.74254559     0.20700
C1235       C  0.41039692  0.94429418  0.73670878    -0.32600
C1236       C  0.43987857  0.95504549  0.70430231     0.01400
C1237       C  0.43524447  0.92603295  0.67706156    -0.23900
C1238       C  0.29283973  0.76822315  0.69132202    -0.28500
C1239       C  0.26205023  0.75817796  0.72191825     0.07100
C1240       C  0.26926728  0.78578384  0.75264060    -0.27200
H1241       H  0.35563511  0.79604930  0.63482437     0.11800
H1242       H  0.41775513  0.86521912  0.62832921     0.12900
H1243       H  0.28979268  0.84558356  0.80482704     0.12000
H1244       H  0.35117187  0.91504603  0.79744005     0.11200
H1245       H  0.41482686  0.96676680  0.75831650     0.16600
H1246       H  0.45857867  0.93455947  0.65247164     0.12500
H1247       H  0.28654833  0.74637962  0.66780042     0.15400
H1248       H  0.24494123  0.77741913  0.77599808     0.15200
C1249       C  0.19091400  0.64437516  0.04097133    -0.17700
C1250       C  0.15547342  0.60464459  0.04051378    -0.19900
C1251       C  0.12281211  0.59159069  0.01086795     0.20800
C1252       C  0.12540639  0.61905453  0.98203208    -0.02800
C1253       C  0.16099790  0.65896001  0.98247300    -0.05900
C1254       C  0.19421293  0.67157822  0.01174487     0.21100
C1255       C  0.16429891  0.68581083  0.95225163     0.19200
C1256       C  0.13152790  0.67300704  0.92296751    -0.17300
C1257       C  0.09598076  0.63356953  0.92290666    -0.19600
C1258       C  0.09294145  0.60644885  0.95196278     0.20700
C1259       C  0.05785730  0.56688217  0.95145142    -0.32600
C1260       C  0.05495355  0.53955074  0.98005229     0.01400
C1261       C  0.08756011  0.55165162  0.00941250    -0.23900
C1262       C  0.23082069  0.71071489  0.00989466    -0.28500
C1263       C  0.23456810  0.73661717  0.97869528     0.07100
C1264       C  0.20117696  0.72453466  0.95067123    -0.27200
H1265       H  0.21612876  0.65363995  0.06361177     0.11800
H1266       H  0.15385452  0.58402536  0.06297704     0.12900
H1267       H  0.13368593  0.69334626  0.89972657     0.12000
H1268       H  0.07108472  0.62415555  0.89981188     0.11200
H1269       H  0.03237835  0.55724142  0.92894776     0.16600
H1270       H  0.08471308  0.53041445  0.03185989     0.12500
H1271       H  0.25719625  0.72067647  0.03123639     0.15400
H1272       H  0.20482883  0.74508597  0.92678049     0.15200
C1273       C  0.94612769  0.77295844  0.04400567    -0.17700
C1274       C  0.94010184  0.80336812  0.04309415    -0.19900
C1275       C  0.96028382  0.83340809  0.01236727     0.20800
C1276       C  0.48765023  0.83324570  0.98289674    -0.02800
C1277       C  0.49303274  0.80221024  0.98325020    -0.05900
C1278       C  0.97181588  0.77162122  0.01368634     0.21100
C1279       C  0.51994508  0.80196313  0.95331985     0.19200
C1280       C  0.54218230  0.83315997  0.92422206    -0.17300
C1281       C  0.53714742  0.86402867  0.92411042    -0.19600
C1282       C  0.50960552  0.86404650  0.95293019     0.20700
C1283       C  0.50406701  0.89463419  0.95253454    -0.32600
C1284       C  0.47651687  0.89483614  0.98123961     0.01400
C1285       C  0.95426963  0.86396509  0.01088951    -0.23900
C1286       C  0.97617716  0.74005542  0.01257187    -0.28500
C1287       C  0.50045875  0.73836707  0.98068954     0.07100
C1288       C  0.52319643  0.76996339  0.95216628    -0.27200
H1289       H  0.92993566  0.74998586  0.56781607     0.11800
H1290       H  0.91953652  0.80330993  0.56635677     0.12900
H1291       H  0.56288350  0.83330862  0.90105392     0.12000
H1292       H  0.55439017  0.88764278  0.90110492     0.11200
H1293       H  0.52157486  0.91870726  0.93000477     0.16600
H1294       H  0.93382625  0.86467046  0.03371335     0.12500
H1295       H  0.95935154  0.71593553  0.53509256     0.15400
H1296       H  0.54266207  0.76889276  0.92837657     0.15200
C1297       C  0.27553950  0.44116394  0.92119665    -0.17700
C1298       C  0.30759131  0.43483398  0.92038592    -0.19900
C1299       C  0.33983154  0.45209494  0.95117482     0.20800
C1300       C  0.34143458  0.47830407  0.98109973    -0.02800
C1301       C  0.30931292  0.48470032  0.98191327    -0.05900
C1302       C  0.27495336  0.46440187  0.95324303     0.21100
C1303       C  0.31094134  0.51054097  0.51229805     0.19200
C1304       C  0.34606574  0.53201481  0.53943081    -0.17300
C1305       C  0.37756905  0.02528274  0.53897997    -0.19600
C1306       C  0.37464294  0.49751217  0.01096553     0.20700
C1307       C  0.40451212  0.98878464  0.01228956    -0.32600
C1308       C  0.40279167  0.96205149  0.98349500     0.01400
C1309       C  0.37078765  0.44415341  0.95246729    -0.23900
C1310       C  0.24026109  0.46684197  0.95817538    -0.28500
C1311       C  0.24070239  0.49027312  0.99055146     0.07100
C1312       C  0.27653912  0.51302241  0.51639079    -0.27200
H1313       H  0.25006008  0.42624755  0.89818706     0.11800
H1314       H  0.30642751  0.41550108  0.89647046     0.12900
H1315       H  0.34808365  0.55249632  0.56235559     0.12000
H1316       H  0.40359636  0.04097280  0.56135316     0.11200
H1317       H  0.43015243  0.00376770  0.53520728     0.16600
H1318       H  0.37080867  0.42522116  0.92882286     0.12500
H1319       H  0.21307273  0.45068289  0.93719230     0.15400
H1320       H  0.27699650  0.53207882  0.54022428     0.15200
Zr1321     Zr  0.83060735  0.22673066  0.32588052     2.17500
O1322       O  0.84907965  0.29318445  0.31291100    -0.51200
O1323       O  0.77252531  0.21165079  0.27819853    -0.74400
O1324       O  0.89233197  0.26548892  0.27512111    -0.81200
O1325       O  0.78941422  0.21912511  0.44066826    -0.82900
O1326       O  0.90828714  0.22365277  0.25106688    -0.78600
O1327       O  0.82301321  0.26142232  0.38514048    -0.90200
O1328       O  0.71862051  0.14609701  0.28115613    -0.76200
O1329       O  0.80820577  0.16953004  0.28447962    -0.85700
O1330       O  0.76701258  0.17176567  0.35865275    -0.84600
O1331       O  0.88623463  0.21745380  0.33104873    -0.72100
O1332       O  0.84410864  0.21709398  0.39687176    -0.84200
Zr1333     Zr  0.82719898  0.10130639  0.38819238     2.26400
Zr1334     Zr  0.86423539  0.16036821  0.28857229     2.06300
Zr1335     Zr  0.78270742  0.15845092  0.42681017     2.10000
Zr1336     Zr  0.74686294  0.11558427  0.31872997     1.78800
O1337       O  0.79082311  0.17223553  0.50222801    -0.93000
O1338       O  0.74670577  0.10109980  0.24503169    -0.40900
O1339       O  0.77404608  0.11188420  0.38203305    -0.77500
O1340       O  0.80085775  0.10498094  0.32007809    -0.96200
O1341       O  0.88758402  0.15838032  0.35786393    -0.89500
O1342       O  0.84183506  0.15429599  0.43280586    -0.92300
C1343       C  0.73507854  0.18136146  0.26786962     1.01400
C1344       C  0.80591902  0.25265401  0.42223056     1.14400
C1345       C  0.91555627  0.25825622  0.25299608     1.05100
O1346       O  0.86448429  0.15445893  0.21222478    -0.94500
O1347       O  0.84521727  0.09462548  0.26749836    -0.90200
O1348       O  0.82867185  0.06150645  0.32990338    -0.83400
C1349       C  0.83374459  0.06360671  0.28942416     1.11800
O1350       O  0.95280575  0.28376175  0.39233996    -0.96500
Zr1351     Zr  0.90175051  0.21236769  0.40112012     1.88900
O1352       O  0.89973826  0.12736186  0.42104646    -0.73100
O1353       O  0.92656624  0.16177843  0.30385899    -0.52400
O1354       O  0.97322118  0.23642979  0.37846713    -0.97000
O1355       O  0.89919542  0.24631215  0.46230931    -0.54300
O1356       O  0.92048976  0.18419088  0.45282596    -0.73600
C1357       C  0.92655324  0.15801224  0.44440961     0.98700
O1358       O  0.82177364  0.04311689  0.41363267    -0.62400
O1359       O  0.70746093  0.13099869  0.42460956    -0.57200
O1360       O  0.76933350  0.05931121  0.43896937    -0.93900
O1361       O  0.74295000  0.09338634  0.46119757    -0.92300
O1362       O  0.67469165  0.08684411  0.34380117    -0.92700
O1363       O  0.69652960  0.04397968  0.32014228    -0.91500
C1364       C  0.74269921  0.06209620  0.46034168     1.17600
H1365       H  0.74510418  0.17630009  0.35941454     0.33500
H1366       H  0.78529801  0.08023404  0.30493102     0.44400
H1367       H  0.84555946  0.14997997  0.46189682     0.37900
H1368       H  0.91438301  0.24009692  0.32452960     0.34400
H1369       H  0.74807028  0.12232802  0.22892752     0.26200
H1370       H  0.93068977  0.15070414  0.27839544     0.32100
H1371       H  0.97380958  0.21279670  0.37810272     0.38000
H1372       H  0.65702867  0.07943147  0.31800142     0.32500
H1373       H  0.69696513  0.12025945  0.45317661     0.31300
H1374       H  0.79634694  0.15373237  0.01476129     0.33000
H1375       H  0.87192212  0.22650995  0.47647574     0.32000
H1376       H  0.70950292  0.03480867  0.33922346     0.36000
H1377       H  0.80027544  0.02126847  0.39510650     0.28700
H1378       H  0.85214028  0.29649902  0.28197562     0.33000
H1379       H  0.93639114  0.29281536  0.37950124     0.35800
H1380       H  0.70698120  0.15465347  0.42274296     0.28400
H1381       H  0.84898675  0.04735058  0.40572360     0.41300
H1382       H  0.84212271  0.15738682  0.20207948     0.31300
H1383       H  0.77464631  0.10587386  0.24005092     0.39000
H1384       H  0.89568942  0.26675814  0.45156816     0.30800
H1385       H  0.94993043  0.19046198  0.30396558     0.30900
H1386       H  0.87840656  0.31156715  0.32393397     0.31100
C1387       C  0.97588897  0.43018134  0.48268188     0.80300
N1388       N  0.93866526  0.42730637  0.48223894    -0.78000
C1389       C  0.94037381  0.46128224  0.48140309     0.82800
N1390       N  0.97846763  0.99694567  0.48105229    -0.77900
C1391       C  0.51506060  0.99991969  0.48177720     0.82900
N1392       N  0.51392963  0.46659331  0.48257716    -0.79600
N1393       N  0.70642328  0.99418782  0.99550953    -0.03400
C1394       C  0.66958709  0.46933672  0.01719373    -0.00800
C1395       C  0.64715629  0.48593003  0.01933232    -0.23700
C1396       C  0.67109297  0.02195682  0.99826091    -0.23900
C1397       C  0.70768789  0.02653588  0.48408408    -0.00900
H1398       H  0.61723396  0.47376269  0.03533424     0.12900
H1399       H  0.66292398  0.04280303  0.49431382     0.13000
N1400       N  0.77384934  0.27467353  0.47306541    -0.03400
C1401       C  0.78506848  0.30914997  0.99083843    -0.00800
C1402       C  0.82497722  0.33971242  0.97626146    -0.23700
C1403       C  0.83785202  0.32315492  0.44790115    -0.23900
C1404       C  0.80560195  0.28294121  0.44669168    -0.00900
H1405       H  0.84271253  0.37065706  0.98516130     0.12900
H1406       H  0.86765795  0.33862865  0.43086710     0.13000
N1407       N  0.00100372  0.20387012  0.47589385    -0.03400
C1408       C  0.53497647  0.20276134  0.98450564    -0.00800
C1409       C  0.52364464  0.16487338  0.97559207    -0.23700
C1410       C  0.98197657  0.14277990  0.46005017    -0.23900
C1411       C  0.96847378  0.16741876  0.46054434    -0.00900
H1412       H  0.54344736  0.15437483  0.97961434     0.12900
H1413       H  0.96381741  0.11222511  0.44941352     0.13000
Zr1414     Zr  0.66198955  0.26959913  0.07542921     2.17500
O1415       O  0.64338214  0.20317713  0.06219113    -0.51200
O1416       O  0.72046174  0.28413206  0.02892779    -0.74400
O1417       O  0.59981480  0.22985704  0.02565472    -0.81200
O1418       O  0.70638650  0.27765595  0.18856003    -0.82900
O1419       O  0.58360858  0.27134335  0.00108490    -0.78600
O1420       O  0.67004455  0.23485800  0.13386989    -0.90200
O1421       O  0.77447463  0.34963331  0.03245090    -0.76200
O1422       O  0.68309297  0.32589433  0.03314539    -0.85700
O1423       O  0.72563788  0.32489894  0.10775892    -0.85400
O1424       O  0.60627236  0.27881813  0.08081356    -0.72100
O1425       O  0.64915226  0.27929930  0.14650128    -0.84200
Zr1426     Zr  0.66492793  0.39458061  0.13758798     2.26400
Zr1427     Zr  0.62731041  0.33524412  0.03734930     2.06300
Zr1428     Zr  0.71085625  0.33766893  0.17650203     2.10000
Zr1429     Zr  0.74484095  0.38020419  0.06660986     1.78800
O1430       O  0.70360976  0.32300661  0.25165025    -0.93000
O1431       O  0.74161685  0.39212209  0.99274024    -0.40900
O1432       O  0.72527827  0.39065779  0.13400627    -0.77500
O1433       O  0.69057012  0.39059594  0.06908447    -0.96200
O1434       O  0.60515726  0.33713347  0.10723158    -0.89500
O1435       O  0.65172650  0.34193304  0.18193535    -0.92300
C1436       C  0.75825909  0.31432244  0.01949403     1.01400
C1437       C  0.68868700  0.24386811  0.17018471     1.14400
C1438       C  0.57637924  0.23680283  0.00353430     1.05100
O1439       O  0.63427655  0.34003619  0.96085747    -0.94500
O1440       O  0.64543751  0.40131084  0.01796703    -0.90200
O1441       O  0.66348690  0.43494241  0.08014175    -0.83400
C1442       C  0.65765482  0.43259170  0.03980883     1.11800
O1443       O  0.54332578  0.21211116  0.14209855    -0.96500
Zr1444     Zr  0.59144597  0.28380872  0.15098498     1.88900
O1445       O  0.59200516  0.36773787  0.17004206    -0.73100
O1446       O  0.56268443  0.33231911  0.03898006    -0.52400
O1447       O  0.52170620  0.26487155  0.12815388    -0.97000
O1448       O  0.59308304  0.25045641  0.21315879    -0.54300
O1449       O  0.57201463  0.31139140  0.20254667    -0.73600
C1450       C  0.56531562  0.33704409  0.19341107     0.98700
O1451       O  0.67059119  0.45230475  0.16419399    -0.62400
O1452       O  0.78661626  0.36774747  0.17280936    -0.57200
O1453       O  0.72367092  0.43666921  0.18766316    -0.93900
O1454       O  0.74969287  0.40262245  0.21133835    -0.92300
O1455       O  0.82075840  0.41563625  0.08069084    -0.92700
O1456       O  0.79369631  0.45149804  0.07481559    -0.91500
C1457       C  0.75005520  0.43399115  0.20977698     1.17600
H1458       H  0.74753210  0.32042121  0.10835293     0.33500
H1459       H  0.70589646  0.41535239  0.05390655     0.44400
H1460       H  0.64791086  0.34626456  0.21098500     0.37900
H1461       H  0.57802111  0.25589113  0.07453772     0.34400
H1462       H  0.73939661  0.37014929  0.97727825     0.26200
H1463       H  0.54390294  0.31105558  0.05934402     0.32100
H1464       H  0.51456929  0.24820150  0.10274059     0.38000
H1465       H  0.82354811  0.39688233  0.09713028     0.32500
H1466       H  0.79719946  0.37767191  0.20165637     0.31300
H1467       H  0.69175251  0.33680072  0.26359260     0.33000
H1468       H  0.61837681  0.27129825  0.22927237     0.32000
H1469       H  0.77777526  0.45934207  0.09110288     0.36000
H1470       H  0.69144667  0.47403782  0.14520413     0.28700
H1471       H  0.64089608  0.20023638  0.03122498     0.33000
H1472       H  0.56160763  0.20397203  0.13234600     0.35800
H1473       H  0.78843738  0.34504564  0.16919034     0.28400
H1474       H  0.64310952  0.44786608  0.15723256     0.41300
H1475       H  0.62467716  0.35667429  0.45217803     0.31300
H1476       H  0.71378788  0.38772966  0.98838461     0.39000
H1477       H  0.60015868  0.23214359  0.20350249     0.30800
H1478       H  0.57009911  0.35709634  0.05280455     0.30900
H1479       H  0.61384561  0.18470795  0.07260855     0.31100
C1480       C  0.55366783  0.03601331  0.20696271     0.80300
N1481       N  0.01642923  0.49978304  0.20278779    -0.78000
C1482       C  0.97899303  0.49530549  0.20304485     0.82800
N1483       N  0.97846856  0.02760591  0.20719879    -0.77900
C1484       C  0.51551065  0.06451278  0.21071633     0.82900
N1485       N  0.55352122  0.06885751  0.21136913    -0.79600
N1486       N  0.78602315  0.50235184  0.24400203    -0.03400
C1487       C  0.82217275  0.02692322  0.26695146    -0.00800
C1488       C  0.84412761  0.00997796  0.27085438    -0.23700
C1489       C  0.82065112  0.47398733  0.24966826    -0.23900
C1490       C  0.78468840  0.46969640  0.23373602    -0.00900
H1491       H  0.87340302  0.02190281  0.28814192     0.12900
H1492       H  0.82864173  0.45291776  0.24692605     0.13000
N1493       N  0.49009804  0.29048242  0.22305946    -0.03400
C1494       C  0.95678366  0.29212558  0.23334951    -0.00800
C1495       C  0.96897910  0.33060361  0.22636220    -0.23700
C1496       C  0.51051050  0.35258498  0.21059626    -0.23900
C1497       C  0.52314028  0.32730045  0.20903334    -0.00900
H1498       H  0.94995925  0.34168576  0.23216272     0.12900
H1499       H  0.52935218  0.38363355  0.20168710     0.13000
N1500       N  0.72137769  0.22089024  0.21885908    -0.03400
C1501       C  0.70888310  0.18666299  0.23827253    -0.00800
C1502       C  0.66780256  0.15678055  0.22544243    -0.23700
C1503       C  0.65519156  0.17366956  0.19716204    -0.23900
C1504       C  0.68888107  0.21327737  0.19400132    -0.00900
H1505       H  0.64893208  0.12610343  0.23563995     0.12900
H1506       H  0.62454615  0.15894181  0.18169703     0.13000
C1507       C  0.95188087  0.13183557  0.16157071    -0.17700
C1508       C  0.94692943  0.16272063  0.16417691    -0.19900
C1509       C  0.96872341  0.19225781  0.19513879     0.20800
C1510       C  0.49466542  0.18999253  0.22470855    -0.02800
C1511       C  0.49986044  0.15887896  0.22194671    -0.05900
C1512       C  0.97883229  0.13009582  0.18978260     0.21100
C1513       C  0.52669111  0.15703318  0.25072252     0.19200
C1514       C  0.54585644  0.18495731  0.28364387    -0.17300
C1515       C  0.54009276  0.21545384  0.28686053    -0.19600
C1516       C  0.51579748  0.21906725  0.25664984     0.20700
C1517       C  0.51290339  0.25153514  0.25712387    -0.32600
C1518       C  0.48970600  0.25533975  0.22565614     0.01400
C1519       C  0.96633854  0.22481564  0.19599791    -0.23900
C1520       C  0.98525121  0.10016575  0.18617729    -0.28500
C1521       C  0.51291040  0.09874306  0.21374344     0.07100
C1522       C  0.53364858  0.12725071  0.24601666    -0.27200
H1523       H  0.93526785  0.10972523  0.13694703     0.11800
H1524       H  0.92678639  0.16399545  0.14139166     0.12900
H1525       H  0.56586984  0.18360488  0.30652452     0.12000
H1526       H  0.55593953  0.23708183  0.31201632     0.11200
H1527       H  0.52982453  0.27458759  0.28079825     0.16600
H1528       H  0.94752968  0.22740652  0.17261821     0.12500
H1529       H  0.96875556  0.07784065  0.16168153     0.15400
H1530       H  0.55403907  0.12549980  0.26802744     0.15200
C1531       C  0.72413831  0.05968594  0.16408749    -0.17700
C1532       C  0.69232763  0.06615323  0.16003016    -0.19900
C1533       C  0.65774126  0.04815748  0.18807780     0.20800
C1534       C  0.65405139  0.52156379  0.21892633    -0.02800
C1535       C  0.68584650  0.51486564  0.22286913    -0.05900
C1536       C  0.72197613  0.03524498  0.19643306     0.21100
C1537       C  0.68182324  0.48823970  0.25379978     0.19200
C1538       C  0.64505835  0.46676720  0.27869952    -0.17300
C1539       C  0.61395773  0.47390039  0.27528817    -0.19600
C1540       C  0.61878274  0.50190815  0.24628474     0.20700
C1541       C  0.58840536  0.50995873  0.24374718    -0.32600
C1542       C  0.59171458  0.03648911  0.21353666     0.01400
C1543       C  0.62635799  0.05554847  0.18553178    -0.23900
C1544       C  0.75561640  0.03165240  0.20387613    -0.28500
C1545       C  0.75256242  0.50709725  0.23650633     0.07100
C1546       C  0.71524479  0.48459870  0.26033426    -0.27200
H1547       H  0.75117170  0.07491414  0.14294866     0.11800
H1548       H  0.69529361  0.08594142  0.13557311     0.12900
H1549       H  0.64123927  0.44575793  0.30204478     0.12000
H1550       H  0.58643936  0.45795740  0.29579618     0.11200
H1551       H  0.56096352  0.49433792  0.26446528     0.16600
H1552       H  0.62797767  0.07473625  0.16108313     0.12500
H1553       H  0.78404104  0.04780385  0.18460453     0.15400
H1554       H  0.71280733  0.46477755  0.28447346     0.15200
C1555       C  0.86005961  0.31778813  0.15755706    -0.17700
C1556       C  0.89534825  0.35724282  0.15374717    -0.19900
C1557       C  0.90093065  0.38623428  0.18170447     0.20800
C1558       C  0.87160889  0.37528440  0.21476391    -0.02800
C1559       C  0.83649934  0.33540026  0.21910188    -0.05900
C1560       C  0.83016727  0.30678305  0.18962392     0.21100
C1561       C  0.80625051  0.32466093  0.25123013     0.19200
C1562       C  0.81253102  0.35346820  0.27990378    -0.17300
C1563       C  0.84743693  0.39309424  0.27559087    -0.19600
C1564       C  0.87654520  0.40439722  0.24259840     0.20700
C1565       C  0.91039317  0.44429846  0.23677459    -0.32600
C1566       C  0.93988508  0.45505175  0.20437869     0.01400
C1567       C  0.93525510  0.42604307  0.17713474    -0.23900
C1568       C  0.79284695  0.26823248  0.19136077    -0.28500
C1569       C  0.76204598  0.25818520  0.22194394     0.07100
C1570       C  0.76925114  0.28578887  0.25266357    -0.27200
H1571       H  0.85566262  0.29606318  0.13488662     0.11800
H1572       H  0.91778215  0.36523462  0.12840350     0.12900
H1573       H  0.78976022  0.34558306  0.30485112     0.12000
H1574       H  0.85114625  0.41504478  0.29748390     0.11200
H1575       H  0.91481940  0.46676846  0.25838399     0.16600
H1576       H  0.95859671  0.43457180  0.15255218     0.12500
H1577       H  0.78656536  0.24638996  0.16784241     0.15400
H1578       H  0.74491716  0.27742199  0.27601223     0.15200
C1579       C  0.69089002  0.14439442  0.54102640    -0.17700
C1580       C  0.65544470  0.10466571  0.54058188    -0.19900
C1581       C  0.62278944  0.09160293  0.51092647     0.20800
C1582       C  0.62539136  0.11905798  0.48207147    -0.02800
C1583       C  0.66098499  0.15896337  0.48250333    -0.05900
C1584       C  0.69419754  0.17158843  0.51178077     0.21100
C1585       C  0.66429201  0.18580605  0.45226658     0.19200
C1586       C  0.63152697  0.17299327  0.42297214    -0.17300
C1587       C  0.59598077  0.13355479  0.42291613    -0.19600
C1588       C  0.59293447  0.10644235  0.45198974     0.20700
C1589       C  0.55785360  0.06687321  0.45148083    -0.32600
C1590       C  0.55494419  0.03954890  0.48009775     0.01400
C1591       C  0.58753937  0.05166217  0.50947631    -0.23900
C1592       C  0.73081076  0.21072209  0.50991838    -0.28500
C1593       C  0.73456221  0.23661759  0.47870767     0.07100
C1594       C  0.70117186  0.22452926  0.45067965    -0.27200
H1595       H  0.71610178  0.15366461  0.56367238     0.11800
H1596       H  0.65381960  0.08405352  0.56306009     0.12900
H1597       H  0.63369031  0.19332542  0.39971777     0.12000
H1598       H  0.57109124  0.12413334  0.39981119     0.11200
H1599       H  0.53238211  0.05722458  0.42896515     0.16600
H1600       H  0.58468695  0.03043229  0.53193812     0.12500
H1601       H  0.75718509  0.22068701  0.53126296     0.15400
H1602       H  0.70482669  0.24507464  0.42677941     0.15200
C1603       C  0.44615127  0.27296317  0.54402401    -0.17700
C1604       C  0.44013021  0.30337577  0.54311594    -0.19900
C1605       C  0.46030656  0.33341187  0.51238445     0.20800
C1606       C  0.98764575  0.33324167  0.48292209    -0.02800
C1607       C  0.99303121  0.30220783  0.48327294    -0.05900
C1608       C  0.47183018  0.27162039  0.51369782     0.21100
C1609       C  0.01994083  0.30196120  0.45333813     0.19200
C1610       C  0.04218026  0.33316196  0.42424509    -0.17300
C1611       C  0.03714722  0.36403183  0.42414005    -0.19600
C1612       C  0.00960216  0.36404535  0.45295909     0.20700
C1613       C  0.00406137  0.39463151  0.45256509    -0.32600
C1614       C  0.97650600  0.39482911  0.48126647     0.01400
C1615       C  0.45429439  0.36397009  0.51090824    -0.23900
C1616       C  0.47618703  0.24005272  0.51258120    -0.28500
C1617       C  0.00045422  0.23836281  0.48070084     0.07100
C1618       C  0.02318731  0.26995842  0.45217576    -0.27200
H1619       H  0.42990765  0.24997725  0.06778750     0.11800
H1620       H  0.41950284  0.30329754  0.06631454     0.12900
H1621       H  0.06288125  0.33331257  0.40107507     0.12000
H1622       H  0.05439199  0.38764914  0.40113828     0.11200
H1623       H  0.02157091  0.41870665  0.43003789     0.16600
H1624       H  0.43385796  0.36468004  0.53373745     0.12500
H1625       H  0.45933794  0.21593231  0.03508056     0.15400
H1626       H  0.04264928  0.26888747  0.42838177     0.15200
C1627       C  0.77553096  0.94115249  0.42118997    -0.17700
C1628       C  0.80758351  0.93482280  0.42038461    -0.19900
C1629       C  0.83982390  0.95208784  0.45117364     0.20800
C1630       C  0.84142681  0.97830144  0.48109174    -0.02800
C1631       C  0.80930534  0.98469842  0.48189907    -0.05900
C1632       C  0.77494455  0.96439519  0.45323060     0.21100
C1633       C  0.81093130  0.01054029  0.01231065     0.19200
C1634       C  0.84605070  0.03201034  0.03944980    -0.17300
C1635       C  0.87756988  0.52526997  0.03899378    -0.19600
C1636       C  0.87463593  0.99751490  0.51095627     0.20700
C1637       C  0.90449867  0.48877841  0.51229011    -0.32600
C1638       C  0.90277614  0.46204181  0.48349919     0.01400
C1639       C  0.87078070  0.94414675  0.45247260    -0.23900
C1640       C  0.74025139  0.96683562  0.45815992    -0.28500
C1641       C  0.74069222  0.99026906  0.49053396     0.07100
C1642       C  0.77652668  0.01301727  0.01640277    -0.27200
H1643       H  0.75005145  0.92623252  0.39818080     0.11800
H1644       H  0.80641993  0.91548668  0.39647358     0.12900
H1645       H  0.84806172  0.05248446  0.06238044     0.12000
H1646       H  0.90359901  0.54095819  0.06136516     0.11200
H1647       H  0.93016308  0.50376651  0.03519500     0.16600
H1648       H  0.87080348  0.92521310  0.42883139     0.12500
H1649       H  0.71306214  0.95067299  0.43717839     0.15400
H1650       H  0.77697819  0.03206762  0.04024025     0.15200
Zr1651     Zr  0.83060578  0.22673771  0.82587175     2.17500
O1652       O  0.84907689  0.29319020  0.81288914    -0.51200
O1653       O  0.77253095  0.21165743  0.77818033    -0.74400
O1654       O  0.89232805  0.26548671  0.77511054    -0.81200
O1655       O  0.78940346  0.21912607  0.94065666    -0.82900
O1656       O  0.90827780  0.22364691  0.75105616    -0.78600
O1657       O  0.82302178  0.26143244  0.88513962    -0.90200
O1658       O  0.71861400  0.14610941  0.78116957    -0.76200
O1659       O  0.80820106  0.16953410  0.78447491    -0.85700
O1660       O  0.76701118  0.17177544  0.85864860    -0.84600
O1661       O  0.88623236  0.21745870  0.83103945    -0.72100
O1662       O  0.84410397  0.21709885  0.89686180    -0.84200
Zr1663     Zr  0.82719425  0.10131195  0.88818726     2.26400
Zr1664     Zr  0.86422752  0.16036832  0.78856818     2.06300
Zr1665     Zr  0.78270496  0.15845662  0.92680500     2.10000
Zr1666     Zr  0.74685824  0.11559160  0.81872708     1.78800
O1667       O  0.79081938  0.17229613  0.00221122    -0.93000
O1668       O  0.74669512  0.10111011  0.74502565    -0.40900
O1669       O  0.77404066  0.11188834  0.88202923    -0.77500
O1670       O  0.80084998  0.10498393  0.82007447    -0.96200
O1671       O  0.88757848  0.15838643  0.85785925    -0.89500
O1672       O  0.84183398  0.15430365  0.93280231    -0.92300
C1673       C  0.73507834  0.18136947  0.76786567     1.01400
C1674       C  0.80592016  0.25265987  0.92222700     1.14400
C1675       C  0.91554923  0.25825096  0.75298515     1.05100
O1676       O  0.86446776  0.15444614  0.71222218    -0.94500
O1677       O  0.84521120  0.09462678  0.76749797    -0.90200
O1678       O  0.82866178  0.06150546  0.82990162    -0.83400
C1679       C  0.83373718  0.06360753  0.78942257     1.11800
O1680       O  0.95280435  0.28377068  0.89232875    -0.96500
Zr1681     Zr  0.90174698  0.21237670  0.90111267     1.88900
O1682       O  0.89974213  0.12737699  0.92102462    -0.73100
O1683       O  0.92655398  0.16177031  0.80385358    -0.52400
O1684       O  0.97322127  0.23644415  0.87846782    -0.97000
O1685       O  0.89917653  0.24632479  0.96229153    -0.54300
O1686       O  0.92049612  0.18420381  0.95281155    -0.73600
C1687       C  0.92656085  0.15802741  0.94438600     0.98700
O1688       O  0.82176908  0.04312452  0.91363379    -0.62400
O1689       O  0.70744809  0.13096426  0.92459670    -0.57200
O1690       O  0.76932801  0.05931261  0.93896139    -0.93900
O1691       O  0.74297045  0.09340203  0.96121815    -0.92300
O1692       O  0.67469327  0.08685074  0.84381913    -0.92700
O1693       O  0.69652608  0.04398669  0.82009650    -0.91500
C1694       C  0.74270700  0.06210514  0.96034908     1.17600
H1695       H  0.74509981  0.17631218  0.85941338     0.33500
H1696       H  0.78528824  0.08023376  0.80492512     0.44400
H1697       H  0.84555972  0.14999044  0.96189229     0.37900
H1698       H  0.91438113  0.24009917  0.82451979     0.34400
H1699       H  0.74803485  0.12232815  0.72892312     0.26200
H1700       H  0.93067124  0.15068470  0.77838980     0.32100
H1701       H  0.97379997  0.21280830  0.87806756     0.38000
H1702       H  0.65702713  0.07945634  0.81802373     0.32500
H1703       H  0.69695239  0.12022518  0.95316583     0.31300
H1704       H  0.79650686  0.15376243  0.51472982     0.33000
H1705       H  0.87188809  0.22652954  0.97644328     0.32000
H1706       H  0.70944949  0.03481285  0.83924216     0.36000
H1707       H  0.80025435  0.02127162  0.89511859     0.28700
H1708       H  0.85216759  0.29651412  0.78195665     0.33000
H1709       H  0.93639375  0.29282280  0.87947848     0.35800
H1710       H  0.70694770  0.15460609  0.92272243     0.28400
H1711       H  0.84897092  0.04734832  0.90570768     0.41300
H1712       H  0.84217416  0.15746589  0.70206945     0.31300
H1713       H  0.77464193  0.10590327  0.74003449     0.39000
H1714       H  0.89569559  0.26678275  0.95154240     0.30800
H1715       H  0.94991680  0.19044746  0.80395023     0.30900
H1716       H  0.87839345  0.31157497  0.82393923     0.31100
C1717       C  0.97590022  0.43018682  0.98262666     0.80300
N1718       N  0.93867660  0.42731230  0.98219695    -0.78000
C1719       C  0.94038532  0.46128854  0.98137628     0.82800
N1720       N  0.97847119  0.99695239  0.98106360    -0.77900
C1721       C  0.51507291  0.99992629  0.98176479     0.82900
N1722       N  0.51393345  0.46659849  0.98255010    -0.79600
N1723       N  0.70641850  0.99417881  0.49549977    -0.03400
C1724       C  0.66958176  0.46933373  0.51719736    -0.00800
C1725       C  0.64715272  0.48592851  0.51933787    -0.23700
C1726       C  0.67109036  0.02195055  0.49826109    -0.23900
C1727       C  0.70769393  0.02654491  0.98409142    -0.00900
H1728       H  0.61723437  0.47376506  0.53534630     0.12900
H1729       H  0.66292506  0.04280745  0.99430770     0.13000
N1730       N  0.77385446  0.27467565  0.97307199    -0.03400
C1731       C  0.78506399  0.30915082  0.49082615    -0.00800
C1732       C  0.82497018  0.33971209  0.47624273    -0.23700
C1733       C  0.83785993  0.32315834  0.94791608    -0.23900
C1734       C  0.80560716  0.28294557  0.94669703    -0.00900
H1735       H  0.84270529  0.37065754  0.48513800     0.12900
H1736       H  0.86766737  0.33863369  0.93088469     0.13000
N1737       N  0.00101399  0.20387847  0.97587043    -0.03400
C1738       C  0.53497209  0.20275787  0.48451826    -0.00800
C1739       C  0.52363637  0.16486632  0.47561807    -0.23700
C1740       C  0.98198673  0.14279369  0.95999905    -0.23900
C1741       C  0.96848379  0.16743208  0.96051087    -0.00900
H1742       H  0.54343713  0.15436647  0.47964823     0.12900
H1743       H  0.96382821  0.11224314  0.94934845     0.13000
Zr1744     Zr  0.66199275  0.26960314  0.57542734     2.17500
O1745       O  0.64336493  0.20317505  0.56217798    -0.51200
O1746       O  0.72046578  0.28413513  0.52892868    -0.74400
O1747       O  0.59981794  0.22986154  0.52565522    -0.81200
O1748       O  0.70638489  0.27765152  0.68854584    -0.82900
O1749       O  0.58360265  0.27134295  0.50109363    -0.78600
O1750       O  0.67003938  0.23485176  0.63385837    -0.90200
O1751       O  0.77447156  0.34964015  0.53243334    -0.76200
O1752       O  0.68309092  0.32589746  0.53314486    -0.85700
O1753       O  0.72564382  0.32490404  0.60775442    -0.85400
O1754       O  0.60627666  0.27882145  0.58082046    -0.72100
O1755       O  0.64915493  0.27929970  0.64650150    -0.84200
Zr1756     Zr  0.66492508  0.39458082  0.63759398     2.26400
Zr1757     Zr  0.62730625  0.33524424  0.53735792     2.06300
Zr1758     Zr  0.71085983  0.33766990  0.67649846     2.10000
Zr1759     Zr  0.74483987  0.38020883  0.56660670     1.78800
O1760       O  0.70363158  0.32299388  0.75164236    -0.93000
O1761       O  0.74159463  0.39213882  0.49274590    -0.40900
O1762       O  0.72527529  0.39065706  0.63400445    -0.77500
O1763       O  0.69056634  0.39059628  0.56909167    -0.96200
O1764       O  0.60515325  0.33713356  0.60724116    -0.89500
O1765       O  0.65173073  0.34193451  0.68193991    -0.92300
C1766       C  0.75825849  0.31432686  0.51948430     1.01400
C1767       C  0.68868334  0.24386268  0.67017153     1.14400
C1768       C  0.57637679  0.23680359  0.50354079     1.05100
O1769       O  0.63425599  0.34003237  0.46086524    -0.94500
O1770       O  0.64543815  0.40131090  0.51797397    -0.90200
O1771       O  0.66347396  0.43493930  0.58014966    -0.83400
C1772       C  0.65764950  0.43259011  0.53981536     1.11800
O1773       O  0.54334253  0.21211196  0.64209319    -0.96500
Zr1774     Zr  0.59144901  0.28380996  0.65099149     1.88900
O1775       O  0.59200434  0.36773820  0.67005453    -0.73100
O1776       O  0.56268018  0.33231857  0.53900137    -0.52400
O1777       O  0.52170704  0.26486341  0.62815665    -0.97000
O1778       O  0.59308651  0.25048085  0.71318409    -0.54300
O1779       O  0.57201103  0.31138764  0.70255267    -0.73600
C1780       C  0.56531344  0.33704189  0.69342037     0.98700
O1781       O  0.67062563  0.45232171  0.66420353    -0.62400
O1782       O  0.78662185  0.36776016  0.67282153    -0.57200
O1783       O  0.72366415  0.43667774  0.68766342    -0.93900
O1784       O  0.74969010  0.40263023  0.71132327    -0.92300
O1785       O  0.82076076  0.41565122  0.58067491    -0.92700
O1786       O  0.79369050  0.45150283  0.57481843    -0.91500
C1787       C  0.75005111  0.43399865  0.70976915     1.17600
H1788       H  0.74754229  0.32042838  0.60834718     0.33500
H1789       H  0.70589069  0.41535286  0.55391734     0.44400
H1790       H  0.64791578  0.34626457  0.71098771     0.37900
H1791       H  0.57803028  0.25589681  0.57454561     0.34400
H1792       H  0.73938413  0.37017380  0.47727409     0.26200
H1793       H  0.54390366  0.31106011  0.55936716     0.32100
H1794       H  0.51457185  0.24819130  0.60274305     0.38000
H1795       H  0.82355087  0.39691467  0.59715129     0.32500
H1796       H  0.79719133  0.37766445  0.70167587     0.31300
H1797       H  0.69174264  0.33675592  0.76359072     0.33000
H1798       H  0.61837846  0.27133006  0.72929651     0.32000
H1799       H  0.77773233  0.45935342  0.59102065     0.36000
H1800       H  0.69148239  0.47404843  0.64521115     0.28700
H1801       H  0.64088402  0.20023875  0.53120986     0.33000
H1802       H  0.56162990  0.20398206  0.63233586     0.35800
H1803       H  0.78844710  0.34506358  0.66918356     0.28400
H1804       H  0.64314877  0.44789386  0.65724849     0.41300
H1805       H  0.62468935  0.35667092  0.95216525     0.31300
H1806       H  0.71375958  0.38773530  0.48839811     0.39000
H1807       H  0.60016866  0.23216954  0.70353805     0.30800
H1808       H  0.57009835  0.35710067  0.55282364     0.30900
H1809       H  0.61382699  0.18470989  0.57258998     0.31100
C1810       C  0.55365466  0.03600408  0.70689027     0.80300
N1811       N  0.01642340  0.49978184  0.70272572    -0.78000
C1812       C  0.97898584  0.49530145  0.70297182     0.82800
N1813       N  0.97847144  0.02760390  0.70717667    -0.77900
C1814       C  0.51549217  0.06449867  0.71064667     0.82900
N1815       N  0.55350327  0.06884471  0.71131178    -0.79600
N1816       N  0.78601899  0.50235292  0.74400944    -0.03400
C1817       C  0.82216782  0.02692723  0.76694540    -0.00800
C1818       C  0.84412850  0.00998680  0.77083669    -0.23700
C1819       C  0.82065164  0.47399139  0.74964951    -0.23900
C1820       C  0.78468539  0.46970089  0.73372942    -0.00900
H1821       H  0.87340530  0.02191173  0.78812158     0.12900
H1822       H  0.82864440  0.45292414  0.74689355     0.13000
N1823       N  0.49009406  0.29047647  0.72306331    -0.03400
C1824       C  0.95677736  0.29211917  0.73334189    -0.00800
C1825       C  0.96896771  0.33059412  0.72634660    -0.23700
C1826       C  0.51050226  0.35257718  0.71059505    -0.23900
C1827       C  0.52313662  0.32729588  0.70904040    -0.00900
H1828       H  0.94994248  0.34167228  0.73213665     0.12900
H1829       H  0.52934218  0.38362527  0.70168415     0.13000
N1830       N  0.72137884  0.22088785  0.71883887    -0.03400
C1831       C  0.70888239  0.18666570  0.73826488    -0.00800
C1832       C  0.66779739  0.15678290  0.72544637    -0.23700
C1833       C  0.65518446  0.17366763  0.69716230    -0.23900
C1834       C  0.68887803  0.21327286  0.69398768    -0.00900
H1835       H  0.64892476  0.12610876  0.73565483     0.12900
H1836       H  0.62453481  0.15893970  0.68170603     0.13000
C1837       C  0.95184734  0.13181064  0.66162551    -0.17700
C1838       C  0.94689849  0.16269662  0.66422882    -0.19900
C1839       C  0.96871259  0.19224701  0.69517375     0.20800
C1840       C  0.49465343  0.18998174  0.72469429    -0.02800
C1841       C  0.49984377  0.15886560  0.72192312    -0.05900
C1842       C  0.97881731  0.13008423  0.68982225     0.21100
C1843       C  0.52667568  0.15701389  0.75069112     0.19200
C1844       C  0.54584278  0.18493236  0.78361817    -0.17300
C1845       C  0.54007940  0.21542895  0.78684740    -0.19600
C1846       C  0.51578662  0.21905098  0.75664082     0.20700
C1847       C  0.51289634  0.25152191  0.75712264    -0.32600
C1848       C  0.48970091  0.25533301  0.72565719     0.01400
C1849       C  0.96633156  0.22480634  0.69602450    -0.23900
C1850       C  0.98523519  0.10015472  0.68621383    -0.28500
C1851       C  0.51288774  0.09872666  0.71369484     0.07100
C1852       C  0.53363112  0.12723049  0.74597210    -0.27200
H1853       H  0.93521863  0.10968954  0.63701425     0.11800
H1854       H  0.92674139  0.16396159  0.64145376     0.12900
H1855       H  0.56585617  0.18357482  0.80649424     0.12000
H1856       H  0.55592678  0.23705180  0.81200771     0.11200
H1857       H  0.52981823  0.27457061  0.78080067     0.16600
H1858       H  0.94751485  0.22739003  0.67264820     0.12500
H1859       H  0.96872817  0.07782428  0.66172479     0.15400
H1860       H  0.55402482  0.12547648  0.76797511     0.15200
C1861       C  0.72414723  0.05970118  0.66407205    -0.17700
C1862       C  0.69233520  0.06616580  0.66000683    -0.19900
C1863       C  0.65774120  0.04816372  0.68804517     0.20800
C1864       C  0.65405054  0.52156996  0.71893788    -0.02800
C1865       C  0.68584732  0.51487462  0.72288565    -0.05900
C1866       C  0.72198086  0.03525947  0.69641903     0.21100
C1867       C  0.68182460  0.48825120  0.75381948     0.19200
C1868       C  0.64505908  0.46677982  0.77871924    -0.17300
C1869       C  0.61395642  0.47391038  0.77530278    -0.19600
C1870       C  0.61877986  0.50191417  0.74629432     0.20700
C1871       C  0.58839912  0.50996056  0.74374879    -0.32600
C1872       C  0.59169959  0.03647930  0.71347875     0.01400
C1873       C  0.62635641  0.05555209  0.68549059    -0.23900
C1874       C  0.75562043  0.03166692  0.70386789    -0.28500
C1875       C  0.75256136  0.50710377  0.73652233     0.07100
C1876       C  0.71524620  0.48460998  0.76035486    -0.27200
H1877       H  0.75118477  0.07493218  0.64293838     0.11800
H1878       H  0.69530519  0.08595586  0.63554996     0.12900
H1879       H  0.64124080  0.44577323  0.80206776     0.12000
H1880       H  0.58643746  0.45796807  0.79581012     0.11200
H1881       H  0.56095405  0.49433868  0.76446269     0.16600
H1882       H  0.62798437  0.07474680  0.66104563     0.12500
H1883       H  0.78404735  0.04781892  0.68459940     0.15400
H1884       H  0.71280889  0.46478954  0.78449482     0.15200
C1885       C  0.86004228  0.31778114  0.65749483    -0.17700
C1886       C  0.89533633  0.35723349  0.65368580    -0.19900
C1887       C  0.90092959  0.38622556  0.68164931     0.20800
C1888       C  0.87161593  0.37527748  0.71471667    -0.02800
C1889       C  0.83650622  0.33539404  0.71905924    -0.05900
C1890       C  0.83016003  0.30677749  0.68957215     0.21100
C1891       C  0.80626787  0.32465619  0.75119860     0.19200
C1892       C  0.81255711  0.35346470  0.77987570    -0.17300
C1893       C  0.84745874  0.39309136  0.77555316    -0.19600
C1894       C  0.87655690  0.40439233  0.74255102     0.20700
C1895       C  0.91039727  0.44429410  0.73671536    -0.32600
C1896       C  0.93988153  0.45504598  0.70431184     0.01400
C1897       C  0.93525219  0.42603445  0.67707309    -0.23900
C1898       C  0.79283630  0.26822915  0.69131220    -0.28500
C1899       C  0.76204918  0.25818186  0.72191202     0.07100
C1900       C  0.76926822  0.28578495  0.75263870    -0.27200
H1901       H  0.85563424  0.29605672  0.63481702     0.11800
H1902       H  0.91776303  0.36522399  0.62833512     0.12900
H1903       H  0.78979400  0.34558067  0.80483089     0.12000
H1904       H  0.85117208  0.41504377  0.79744604     0.11200
H1905       H  0.91482466  0.46676627  0.75832212     0.16600
H1906       H  0.95858932  0.43456184  0.65248605     0.12500
H1907       H  0.78654290  0.24638769  0.66778693     0.15400
H1908       H  0.74494325  0.27741860  0.77599808     0.15200
C1909       C  0.69091356  0.14438455  0.04100233    -0.17700
C1910       C  0.65547228  0.10465429  0.04054905    -0.19900
C1911       C  0.62281215  0.09159713  0.01090106     0.20800
C1912       C  0.62540677  0.11905809  0.98206052    -0.02800
C1913       C  0.66099771  0.15896381  0.98249881    -0.05900
C1914       C  0.69421326  0.17158450  0.01177075     0.21100
C1915       C  0.66429738  0.18581237  0.95227513     0.19200
C1916       C  0.63152653  0.17300567  0.92298994    -0.17300
C1917       C  0.59598165  0.13356711  0.92292944    -0.19600
C1918       C  0.59294326  0.10644899  0.95198866     0.20700
C1919       C  0.55786139  0.06688141  0.95147781    -0.32600
C1920       C  0.55495735  0.03955263  0.98008308     0.01400
C1921       C  0.58756147  0.05165737  0.00944744    -0.23900
C1922       C  0.73082205  0.21072038  0.00991575    -0.28500
C1923       C  0.73456828  0.23662002  0.97871357     0.07100
C1924       C  0.70117485  0.22453630  0.95069229    -0.27200
H1925       H  0.71612821  0.15365150  0.06364360     0.11800
H1926       H  0.65385260  0.08403741  0.06301634     0.12900
H1927       H  0.63368371  0.19334303  0.89974693     0.12000
H1928       H  0.57108645  0.12415040  0.89983283     0.11200
H1929       H  0.53238390  0.05723801  0.92897142     0.16600
H1930       H  0.58471390  0.03042254  0.03189862     0.12500
H1931       H  0.75719862  0.22068338  0.03125654     0.15400
H1932       H  0.70482528  0.24508612  0.92680039     0.15200
C1933       C  0.44613153  0.27295893  0.04399419    -0.17700
C1934       C  0.44010706  0.30336940  0.04307959    -0.19900
C1935       C  0.46029290  0.33340967  0.01235321     0.20800
C1936       C  0.98766129  0.33325179  0.98287791    -0.02800
C1937       C  0.99304469  0.30221702  0.98323420    -0.05900
C1938       C  0.47182108  0.27162067  0.01367764     0.21100
C1939       C  0.01995810  0.30196945  0.95330561     0.19200
C1940       C  0.04219879  0.33316758  0.92420944    -0.17300
C1941       C  0.03716699  0.36403833  0.92409841    -0.19600
C1942       C  0.00961974  0.36405372  0.95291300     0.20700
C1943       C  0.00407723  0.39463894  0.95251286    -0.32600
C1944       C  0.97651848  0.39483621  0.98121042     0.01400
C1945       C  0.45427963  0.36396710  0.01087182    -0.23900
C1946       C  0.47618177  0.24005471  0.01256669    -0.28500
C1947       C  0.00047032  0.23837385  0.98067891     0.07100
C1948       C  0.02320776  0.26996855  0.95215337    -0.27200
H1949       H  0.42993370  0.24998388  0.56782056     0.11800
H1950       H  0.41953506  0.30330824  0.56635924     0.12900
H1951       H  0.06290113  0.33331623  0.90104273     0.12000
H1952       H  0.05441365  0.38765416  0.90109532     0.11200
H1953       H  0.02158774  0.41871316  0.92998479     0.16600
H1954       H  0.43383253  0.36467167  0.03369132     0.12500
H1955       H  0.45934838  0.21593212  0.53509779     0.15400
H1956       H  0.04267198  0.26889592  0.92836356     0.15200
C1957       C  0.77553793  0.94116860  0.92119779    -0.17700
C1958       C  0.80759374  0.93484380  0.92038704    -0.19900
C1959       C  0.83983227  0.95210539  0.95117778     0.20800
C1960       C  0.84143013  0.97831079  0.98110405    -0.02800
C1961       C  0.80930762  0.98470591  0.98191425    -0.05900
C1962       C  0.77494858  0.96440538  0.95324342     0.21100
C1963       C  0.81093313  0.01053931  0.51228914     0.19200
C1964       C  0.84605919  0.03201921  0.53941883    -0.17300
C1965       C  0.87756461  0.52527667  0.53899133    -0.19600
C1966       C  0.87463366  0.99751565  0.01097531     0.20700
C1967       C  0.90450953  0.48878083  0.01227669    -0.32600
C1968       C  0.90278655  0.46204691  0.98348107     0.01400
C1969       C  0.87079001  0.94416598  0.95247291    -0.23900
C1970       C  0.74025485  0.96684395  0.95817368    -0.28500
C1971       C  0.74069574  0.99027702  0.99054738     0.07100
C1972       C  0.77652675  0.01301371  0.51638443    -0.27200
H1973       H  0.75005914  0.92625055  0.89818765     0.11800
H1974       H  0.80643340  0.91551300  0.89647115     0.12900
H1975       H  0.84807520  0.05250081  0.56234222     0.12000
H1976       H  0.90359247  0.54096596  0.56136399     0.11200
H1977       H  0.93014871  0.50376250  0.53521235     0.16600
H1978       H  0.87081640  0.92523808  0.92882654     0.12500
H1979       H  0.71306638  0.95068274  0.93719095     0.15400
H1980       H  0.77698052  0.03206681  0.54021985     0.15200
Zr1981     Zr  0.83061323  0.72673569  0.32587101     2.17500
O1982       O  0.84909257  0.79319370  0.31291140    -0.51200
O1983       O  0.77253185  0.71165618  0.27818976    -0.74400
O1984       O  0.89233779  0.76549228  0.27510991    -0.81200
O1985       O  0.78941213  0.71912235  0.44066278    -0.82900
O1986       O  0.90829529  0.72365676  0.25105936    -0.78600
O1987       O  0.82301391  0.76142213  0.38513745    -0.90200
O1988       O  0.71862430  0.64610363  0.28115027    -0.76200
O1989       O  0.80821590  0.66953717  0.28446587    -0.85700
O1990       O  0.76701567  0.67176796  0.35863570    -0.84600
O1991       O  0.88624035  0.71745806  0.33104064    -0.72100
O1992       O  0.84410575  0.71709265  0.39686209    -0.84200
Zr1993     Zr  0.82719963  0.60130874  0.38818082     2.26400
Zr1994     Zr  0.86424330  0.66037206  0.28856460     2.06300
Zr1995     Zr  0.78270285  0.65844868  0.42679470     2.10000
Zr1996     Zr  0.74686922  0.61558873  0.31870986     1.78800
O1997       O  0.79081651  0.67223377  0.50221244    -0.93000
O1998       O  0.74671553  0.60111194  0.24500826    -0.40900
O1999       O  0.77404377  0.61188261  0.38201667    -0.77500
O2000       O  0.80086256  0.60498503  0.32006526    -0.96200
O2001       O  0.88758745  0.65838509  0.35785842    -0.89500
O2002       O  0.84183252  0.65429741  0.43279528    -0.92300
C2003       C  0.73508341  0.68136774  0.26786400     1.01400
C2004       C  0.80591818  0.75265244  0.42222763     1.14400
C2005       C  0.91556252  0.75825957  0.25298544     1.05100
O2006       O  0.86451188  0.65445494  0.21222028    -0.94500
O2007       O  0.84521663  0.59462821  0.26748420    -0.90200
O2008       O  0.82867120  0.56150895  0.32988898    -0.83400
C2009       C  0.83374368  0.56360912  0.28940936     1.11800
O2010       O  0.95278803  0.78376760  0.39232659    -0.96500
Zr2011     Zr  0.90175008  0.71237158  0.40111438     1.88900
O2012       O  0.89974234  0.62736643  0.42102920    -0.73100
O2013       O  0.92656618  0.66177173  0.30386730    -0.52400
O2014       O  0.97322387  0.73643870  0.37846894    -0.97000
O2015       O  0.89919487  0.74632338  0.46229724    -0.54300
O2016       O  0.92049068  0.68419155  0.45281621    -0.73600
C2017       C  0.92655689  0.65801534  0.44439456     0.98700
O2018       O  0.82177584  0.54312042  0.41362147    -0.62400
O2019       O  0.70745883  0.63100530  0.42458730    -0.57200
O2020       O  0.76933655  0.55931325  0.43896183    -0.93900
O2021       O  0.74294555  0.59338413  0.46118150    -0.92300
O2022       O  0.67469944  0.58684884  0.34378578    -0.92700
O2023       O  0.69653152  0.54398409  0.32008132    -0.91500
C2024       C  0.74269902  0.56209631  0.46033084     1.17600
H2025       H  0.74510639  0.67630290  0.35939661     0.33500
H2026       H  0.78529690  0.58023199  0.30491424     0.44400
H2027       H  0.84555602  0.64998128  0.46188740     0.37900
H2028       H  0.91438012  0.74009436  0.32452363     0.34400
H2029       H  0.74807282  0.62233810  0.22890776     0.26200
H2030       H  0.93068758  0.65068655  0.27840880     0.32100
H2031       H  0.97380935  0.71280544  0.37809006     0.38000
H2032       H  0.65703632  0.57944349  0.31798753     0.32500
H2033       H  0.69695772  0.62025810  0.45315168     0.31300
H2034       H  0.79635747  0.65372333  0.01474988     0.33000
H2035       H  0.87192894  0.72651552  0.47647565     0.32000
H2036       H  0.70946144  0.53480689  0.33921646     0.36000
H2037       H  0.80027040  0.52127091  0.39510025     0.28700
H2038       H  0.85217209  0.79652012  0.28197760     0.33000
H2039       H  0.93636059  0.79281527  0.37950121     0.35800
H2040       H  0.70698312  0.65466260  0.42272898     0.28400
H2041       H  0.84898403  0.54735028  0.40570347     0.41300
H2042       H  0.84216552  0.65740133  0.20206066     0.31300
H2043       H  0.77465882  0.60589236  0.24002418     0.39000
H2044       H  0.89566997  0.76675601  0.45155502     0.30800
H2045       H  0.94993302  0.69045072  0.30396634     0.30900
H2046       H  0.87841204  0.81157257  0.32395195     0.31100
C2047       C  0.97589263  0.93018244  0.48267415     0.80300
N2048       N  0.93866968  0.92730911  0.48224143    -0.78000
C2049       C  0.94037931  0.96128582  0.48141481     0.82800
N2050       N  0.97846138  0.49694261  0.48104258    -0.77900
C2051       C  0.51506419  0.49991763  0.48177064     0.82900
N2052       N  0.51392565  0.96659482  0.48258560    -0.79600
N2053       N  0.70643234  0.49419129  0.99550533    -0.03400
C2054       C  0.66958012  0.96933612  0.01720242    -0.00800
C2055       C  0.64715318  0.98593310  0.01934513    -0.23700
C2056       C  0.67109587  0.52195467  0.99824986    -0.23900
C2057       C  0.70768891  0.52653704  0.48407629    -0.00900
H2058       H  0.61723384  0.97376925  0.03535173     0.12900
H2059       H  0.66291793  0.54279772  0.49429248     0.13000
N2060       N  0.77384592  0.77466937  0.47306573    -0.03400
C2061       C  0.78506407  0.80914968  0.99082766    -0.00800
C2062       C  0.82496778  0.83971573  0.97624403    -0.23700
C2063       C  0.83784746  0.82315283  0.44790177    -0.23900
C2064       C  0.80559946  0.78293844  0.44669177    -0.00900
H2065       H  0.84269364  0.87066221  0.98513322     0.12900
H2066       H  0.86765356  0.83862838  0.43086798     0.13000
N2067       N  0.00100874  0.70387246  0.47587899    -0.03400
C2068       C  0.53496981  0.70275798  0.98451955    -0.00800
C2069       C  0.52363388  0.66486742  0.97561367    -0.23700
C2070       C  0.98198502  0.64278568  0.46002436    -0.23900
C2071       C  0.96847938  0.66742234  0.46052610    -0.00900
H2072       H  0.54343256  0.65436542  0.97964435     0.12900
H2073       H  0.96382744  0.61223233  0.44938309     0.13000
Zr2074     Zr  0.66199232  0.76960304  0.07542754     2.17500
O2075       O  0.64339566  0.70318743  0.06216945    -0.51200
O2076       O  0.72045627  0.78412954  0.02891785    -0.74400
O2077       O  0.59980875  0.72985376  0.02566679    -0.81200
O2078       O  0.70639371  0.77766218  0.18855705    -0.82900
O2079       O  0.58360136  0.77133945  0.00109905    -0.78600
O2080       O  0.67005258  0.73486427  0.13386640    -0.90200
O2081       O  0.77446157  0.84963366  0.03242954    -0.76200
O2082       O  0.68308448  0.82589570  0.03314367    -0.85700
O2083       O  0.72564295  0.82490566  0.10775162    -0.85400
O2084       O  0.60627308  0.77881880  0.08082314    -0.72100
O2085       O  0.64916361  0.77930458  0.14650296    -0.84200
Zr2086     Zr  0.66492611  0.89458130  0.13759522     2.26400
Zr2087     Zr  0.62729957  0.83524229  0.03736017     2.06300
Zr2088     Zr  0.71086771  0.83767712  0.17649755     2.10000
Zr2089     Zr  0.74483491  0.88020667  0.06660191     1.78800
O2090       O  0.70363642  0.82302940  0.25164883    -0.93000
O2091       O  0.74159540  0.89212919  0.99273655    -0.40900
O2092       O  0.72527864  0.89066175  0.13400159    -0.77500
O2093       O  0.69056317  0.89059615  0.06908855    -0.96200
O2094       O  0.60515414  0.83713004  0.10724636    -0.89500
O2095       O  0.65173539  0.84193655  0.18194136    -0.92300
C2096       C  0.75825044  0.81432158  0.01947856     1.01400
C2097       C  0.68869471  0.74387457  0.17018137     1.14400
C2098       C  0.57637225  0.73679905  0.00354812     1.05100
O2099       O  0.63420785  0.84000326  0.96086233    -0.94500
O2100       O  0.64543585  0.90131193  0.01797608    -0.90200
O2101       O  0.66347374  0.93493989  0.08015208    -0.83400
C2102       C  0.65764720  0.93259100  0.03981825     1.11800
O2103       O  0.54335602  0.71211021  0.14211367    -0.96500
Zr2104     Zr  0.59145480  0.78380905  0.15099725     1.88900
O2105       O  0.59200209  0.86773362  0.17004833    -0.73100
O2106       O  0.56268014  0.83232987  0.03901560    -0.52400
O2107       O  0.52171870  0.76487366  0.12815619    -0.97000
O2108       O  0.59309247  0.75046161  0.21317547    -0.54300
O2109       O  0.57201500  0.81138838  0.20255485    -0.73600
C2110       C  0.56531411  0.83703984  0.19341806     0.98700
O2111       O  0.67059330  0.95230689  0.16420559    -0.62400
O2112       O  0.78662729  0.86775359  0.17280991    -0.57200
O2113       O  0.72366522  0.93667227  0.18767379    -0.93900
O2114       O  0.74970475  0.90263361  0.21132451    -0.92300
O2115       O  0.82075392  0.91563552  0.08067082    -0.92700
O2116       O  0.79368607  0.95149872  0.07482218    -0.91500
C2117       C  0.75005763  0.93399740  0.20977659     1.17600
H2118       H  0.74753909  0.82043088  0.10834260     0.33500
H2119       H  0.70588739  0.91535065  0.05391482     0.44400
H2120       H  0.64792048  0.84626651  0.21098787     0.37900
H2121       H  0.57802504  0.75589402  0.07455195     0.34400
H2122       H  0.73938664  0.87016508  0.97727001     0.26200
H2123       H  0.54389793  0.81106489  0.05937544     0.32100
H2124       H  0.51457038  0.74817980  0.10276177     0.38000
H2125       H  0.82354295  0.89688344  0.09711627     0.32500
H2126       H  0.79720693  0.87767335  0.20166038     0.31300
H2127       H  0.69173891  0.83679187  0.26358466     0.33000
H2128       H  0.61837953  0.77131019  0.22929700     0.32000
H2129       H  0.77774963  0.95934285  0.09108023     0.36000
H2130       H  0.69144604  0.97403902  0.14521469     0.28700
H2131       H  0.64090536  0.70025069  0.03120158     0.33000
H2132       H  0.56164504  0.70398105  0.13236062     0.35800
H2133       H  0.78844678  0.84505373  0.16918752     0.28400
H2134       H  0.64311214  0.94786810  0.15724921     0.41300
H2135       H  0.62469573  0.85666981  0.45217683     0.31300
H2136       H  0.71375768  0.88772410  0.98838371     0.39000
H2137       H  0.60018495  0.73216095  0.20352395     0.30800
H2138       H  0.57010143  0.85710744  0.05284658     0.30900
H2139       H  0.61385950  0.68471110  0.07259026     0.31100
C2140       C  0.55366277  0.53600363  0.20694695     0.80300
N2141       N  0.01643068  0.99978596  0.20277112    -0.78000
C2142       C  0.97899508  0.99530985  0.20303086     0.82800
N2143       N  0.97846445  0.52760027  0.20721458    -0.77900
C2144       C  0.51551362  0.56451085  0.21069681     0.82900
N2145       N  0.55352150  0.56885071  0.21135240    -0.79600
N2146       N  0.78602341  0.00235311  0.24401389    -0.03400
C2147       C  0.82217378  0.52692595  0.26693657    -0.00800
C2148       C  0.84413067  0.50998285  0.27084143    -0.23700
C2149       C  0.82064911  0.97398605  0.24967460    -0.23900
C2150       C  0.78468861  0.96969902  0.23374137    -0.00900
H2151       H  0.87340754  0.52191109  0.28812754     0.12900
H2152       H  0.82863897  0.95291615  0.24692842     0.13000
N2153       N  0.49009757  0.79047711  0.22306727    -0.03400
C2154       C  0.95678734  0.79212844  0.23333382    -0.00800
C2155       C  0.96898359  0.83060733  0.22635098    -0.23700
C2156       C  0.51050709  0.85257855  0.21060200    -0.23900
C2157       C  0.52313867  0.82729529  0.20904067    -0.00900
H2158       H  0.94996539  0.84169019  0.23215769     0.12900
H2159       H  0.52934730  0.88362670  0.20169123     0.13000
N2160       N  0.72138439  0.72089573  0.21885424    -0.03400
C2161       C  0.70888734  0.68666921  0.23826974    -0.00800
C2162       C  0.66780460  0.65678802  0.22544398    -0.23700
C2163       C  0.65519470  0.67367747  0.19716318    -0.23900
C2164       C  0.68888729  0.71328387  0.19399830    -0.00900
H2165       H  0.64893212  0.62611153  0.23564414     0.12900
H2166       H  0.62454811  0.65895121  0.18170087     0.13000
C2167       C  0.95185120  0.63181160  0.16159319    -0.17700
C2168       C  0.94690501  0.66270058  0.16418957    -0.19900
C2169       C  0.96871130  0.69224901  0.19513872     0.20800
C2170       C  0.49467112  0.68999065  0.22470031    -0.02800
C2171       C  0.49986803  0.65887848  0.22193345    -0.05900
C2172       C  0.97881185  0.63008057  0.18980031     0.21100
C2173       C  0.52669169  0.65702624  0.25071321     0.19200
C2174       C  0.54584939  0.68494318  0.28364171    -0.17300
C2175       C  0.54008428  0.71543858  0.28686274    -0.19600
C2176       C  0.51579494  0.71905802  0.25664977     0.20700
C2177       C  0.51289937  0.75152523  0.25712913    -0.32600
C2178       C  0.48970612  0.75533463  0.22566043     0.01400
C2179       C  0.96633522  0.72481243  0.19598559    -0.23900
C2180       C  0.98523083  0.60014999  0.18620037    -0.28500
C2181       C  0.51291877  0.59874383  0.21372379     0.07100
C2182       C  0.53364909  0.62724402  0.24600468    -0.27200
H2183       H  0.93522878  0.60969253  0.13697901     0.11800
H2184       H  0.92675678  0.66396963  0.14140614     0.12900
H2185       H  0.56585753  0.68358576  0.30652501     0.12000
H2186       H  0.55592487  0.73706084  0.31202442     0.11200
H2187       H  0.52981536  0.77457287  0.28080908     0.16600
H2188       H  0.94752459  0.72740003  0.17260518     0.12500
H2189       H  0.96872798  0.57781795  0.16171222     0.15400
H2190       H  0.55403239  0.62548678  0.26801963     0.15200
C2191       C  0.72413688  0.55968453  0.16407671    -0.17700
C2192       C  0.69232650  0.56615240  0.16002181    -0.19900
C2193       C  0.65773807  0.54815195  0.18806700     0.20800
C2194       C  0.65405894  0.02157693  0.21894488    -0.02800
C2195       C  0.68585171  0.01487533  0.22288666    -0.05900
C2196       C  0.72197422  0.53524164  0.19642027     0.21100
C2197       C  0.68183102  0.98825477  0.25382292     0.19200
C2198       C  0.64507147  0.96679204  0.27873115    -0.17300
C2199       C  0.61397584  0.97393208  0.27532385    -0.19600
C2200       C  0.61879755  0.00193312  0.24631264     0.20700
C2201       C  0.58842254  0.00998682  0.24377541    -0.32600
C2202       C  0.59170580  0.53647387  0.21352054     0.01400
C2203       C  0.62635629  0.55554475  0.18552488    -0.23900
C2204       C  0.75561553  0.53165078  0.20386419    -0.28500
C2205       C  0.75256449  0.00710148  0.23652055     0.07100
C2206       C  0.71525029  0.98460979  0.26035461    -0.27200
H2207       H  0.75117144  0.57491557  0.14293942     0.11800
H2208       H  0.69529411  0.58594440  0.13556863     0.12900
H2209       H  0.64125439  0.94578715  0.30208128     0.12000
H2210       H  0.58646309  0.95799842  0.29583973     0.11200
H2211       H  0.56098650  0.99437529  0.26450131     0.16600
H2212       H  0.62798154  0.57474157  0.16108430     0.12500
H2213       H  0.78404204  0.54780592  0.18459548     0.15400
H2214       H  0.71281422  0.96479172  0.28449696     0.15200
C2215       C  0.86007109  0.81778992  0.15755896    -0.17700
C2216       C  0.89535641  0.85724555  0.15374561    -0.19900
C2217       C  0.90093605  0.88623767  0.18169994     0.20800
C2218       C  0.87161617  0.87528782  0.21476112    -0.02800
C2219       C  0.83650921  0.83540293  0.21910183    -0.05900
C2220       C  0.83017843  0.80678506  0.18962531     0.21100
C2221       C  0.80626038  0.82466362  0.25122990     0.19200
C2222       C  0.81253985  0.85347126  0.27990252    -0.17300
C2223       C  0.84744342  0.89309821  0.27558703    -0.19600
C2224       C  0.87655072  0.90440148  0.24259328     0.20700
C2225       C  0.91039609  0.94430354  0.23676572    -0.32600
C2226       C  0.93988641  0.95505645  0.20436787     0.01400
C2227       C  0.93525656  0.92604701  0.17712558    -0.23900
C2228       C  0.79285729  0.76823488  0.19136068    -0.28500
C2229       C  0.76205397  0.75818935  0.22194033     0.07100
C2230       C  0.76926029  0.78579201  0.25266187    -0.27200
H2231       H  0.85567569  0.79606446  0.13489020     0.11800
H2232       H  0.91778961  0.86523759  0.12840116     0.12900
H2233       H  0.78976915  0.84558591  0.30485005     0.12000
H2234       H  0.85115121  0.91504911  0.29747853     0.11200
H2235       H  0.91482196  0.96677431  0.25837369     0.16600
H2236       H  0.95859664  0.93457549  0.15254144     0.12500
H2237       H  0.78657623  0.74639231  0.16784259     0.15400
H2238       H  0.74492563  0.77742533  0.27600962     0.15200
C2239       C  0.69089370  0.64438657  0.54101755    -0.17700
C2240       C  0.65544948  0.60465759  0.54057066    -0.19900
C2241       C  0.62279325  0.59159652  0.51091701     0.20800
C2242       C  0.62539333  0.61905292  0.48206553    -0.02800
C2243       C  0.66098442  0.65895901  0.48250163    -0.05900
C2244       C  0.69419828  0.67158252  0.51177688     0.21100
C2245       C  0.66428888  0.68580362  0.45226932     0.19200
C2246       C  0.63152546  0.67299122  0.42297305    -0.17300
C2247       C  0.59598285  0.63355131  0.42291119    -0.19600
C2248       C  0.59293749  0.60643791  0.45198251     0.20700
C2249       C  0.55785752  0.56686881  0.45147147    -0.32600
C2250       C  0.55494789  0.53954485  0.48008843     0.01400
C2251       C  0.58754358  0.55165622  0.50946544    -0.23900
C2252       C  0.73081090  0.71071634  0.50991560    -0.28500
C2253       C  0.73455968  0.73661348  0.47870866     0.07100
C2254       C  0.70116684  0.72452763  0.45068536    -0.27200
H2255       H  0.71610677  0.65365556  0.56366148     0.11800
H2256       H  0.65382610  0.58404395  0.56304547     0.12900
H2257       H  0.63368799  0.69332469  0.39972108     0.12000
H2258       H  0.57109472  0.62412993  0.39980458     0.11200
H2259       H  0.53238591  0.55722047  0.42895603     0.16600
H2260       H  0.58469137  0.53042533  0.53192564     0.12500
H2261       H  0.75718690  0.72067997  0.53125740     0.15400
H2262       H  0.70481972  0.74507475  0.42678856     0.15200
C2263       C  0.44616239  0.77297331  0.54404007    -0.17700
C2264       C  0.44013732  0.80338342  0.54312979    -0.19900
C2265       C  0.46030609  0.83341509  0.51239287     0.20800
C2266       C  0.98764361  0.83323923  0.48290524    -0.02800
C2267       C  0.99302807  0.80220477  0.48325515    -0.05900
C2268       C  0.47183584  0.77162713  0.51370958     0.21100
C2269       C  0.01993567  0.80195718  0.45331871     0.19200
C2270       C  0.04216681  0.83315274  0.42421873    -0.17300
C2271       C  0.03713062  0.86402064  0.42411099    -0.19600
C2272       C  0.00959313  0.86403891  0.45293671     0.20700
C2273       C  0.00405379  0.89462624  0.45254474    -0.32600
C2274       C  0.97650799  0.89482941  0.48125507     0.01400
C2275       C  0.45429037  0.86397124  0.51091419    -0.23900
C2276       C  0.47619159  0.74005864  0.51259191    -0.28500
C2277       C  0.00045825  0.73836412  0.48068822     0.07100
C2278       C  0.02318956  0.76995894  0.45216238    -0.27200
H2279       H  0.42992481  0.74998884  0.06780164     0.11800
H2280       H  0.41953044  0.80331568  0.06633728     0.12900
H2281       H  0.06286459  0.83330129  0.40104616     0.12000
H2282       H  0.05436920  0.88763404  0.40110405     0.11200
H2283       H  0.02155752  0.91869815  0.43001300     0.16600
H2284       H  0.43385499  0.86468175  0.53374437     0.12500
H2285       H  0.45934304  0.71593766  0.03508720     0.15400
H2286       H  0.04265274  0.76888870  0.42836927     0.15200
C2287       C  0.77552727  0.44115493  0.42118527    -0.17700
C2288       C  0.80757749  0.43482241  0.42037836    -0.19900
C2289       C  0.83981941  0.45208678  0.45116574     0.20800
C2290       C  0.84142521  0.47830118  0.48108501    -0.02800
C2291       C  0.80930548  0.48470003  0.48189485    -0.05900
C2292       C  0.77494454  0.46439926  0.45322625     0.21100
C2293       C  0.81093944  0.51053634  0.01229533     0.19200
C2294       C  0.84606558  0.53200963  0.03942604    -0.17300
C2295       C  0.87755497  0.02527067  0.03902550    -0.19600
C2296       C  0.87463456  0.49751226  0.51094941     0.20700
C2297       C  0.90450192  0.98878285  0.51229934    -0.32600
C2298       C  0.90278126  0.96204569  0.48351034     0.01400
C2299       C  0.87077479  0.44414395  0.45246233    -0.23900
C2300       C  0.74025343  0.46684177  0.45815708    -0.28500
C2301       C  0.74069510  0.49027285  0.49053396     0.07100
C2302       C  0.77653848  0.51301895  0.01639108    -0.27200
H2303       H  0.75004665  0.42623593  0.39817709     0.11800
H2304       H  0.80641116  0.41548503  0.39646717     0.12900
H2305       H  0.84808397  0.55248894  0.06235437     0.12000
H2306       H  0.90357684  0.04095364  0.06140534     0.11200
H2307       H  0.93014650  0.00376395  0.03524123     0.16600
H2308       H  0.87079582  0.42520992  0.42882034     0.12500
H2309       H  0.71306415  0.45068155  0.43717522     0.15400
H2310       H  0.77699667  0.53207412  0.04022683     0.15200
Zr2311     Zr  0.83061103  0.72674050  0.82586817     2.17500
O2312       O  0.84910432  0.79320310  0.81290391    -0.51200
O2313       O  0.77253308  0.71166192  0.77818270    -0.74400
O2314       O  0.89232570  0.76548522  0.77509816    -0.81200
O2315       O  0.78941845  0.71912995  0.94065725    -0.82900
O2316       O  0.90828111  0.72364779  0.75104987    -0.78600
O2317       O  0.82303097  0.76143627  0.88513895    -0.90200
O2318       O  0.71862093  0.64611159  0.78115771    -0.76200
O2319       O  0.80820768  0.66953887  0.78446808    -0.85700
O2320       O  0.76701465  0.67177755  0.85864161    -0.84600
O2321       O  0.88623481  0.71745837  0.83103430    -0.72100
O2322       O  0.84410656  0.71709763  0.89685637    -0.84200
Zr2323     Zr  0.82719678  0.60130986  0.88817743     2.26400
Zr2324     Zr  0.86423129  0.66036883  0.78856126     2.06300
Zr2325     Zr  0.78270766  0.65845548  0.92679692     2.10000
Zr2326     Zr  0.74686412  0.61559586  0.81871783     1.78800
O2327       O  0.79082400  0.67228580  0.00220510    -0.93000
O2328       O  0.74670483  0.60112314  0.74501412    -0.40900
O2329       O  0.77404512  0.61188871  0.88201868    -0.77500
O2330       O  0.80085174  0.60498201  0.82006456    -0.96200
O2331       O  0.88758225  0.65838572  0.85785207    -0.89500
O2332       O  0.84183368  0.65429868  0.93279465    -0.92300
C2333       C  0.73508336  0.68137326  0.76786140     1.01400
C2334       C  0.80593265  0.75266369  0.92222813     1.14400
C2335       C  0.91554900  0.75825057  0.75297509     1.05100
O2336       O  0.86449146  0.65445814  0.71221509    -0.94500
O2337       O  0.84521392  0.59462550  0.76748956    -0.90200
O2338       O  0.82866861  0.56150578  0.82989355    -0.83400
C2339       C  0.83374275  0.56360693  0.78941478     1.11800
O2340       O  0.95280127  0.78376768  0.89233733    -0.96500
Zr2341     Zr  0.90174689  0.71237318  0.90110811     1.88900
O2342       O  0.89974405  0.62737302  0.92101335    -0.73100
O2343       O  0.92656009  0.66177725  0.80385322    -0.52400
O2344       O  0.97322713  0.73646055  0.87846588    -0.97000
O2345       O  0.89916397  0.74630829  0.96229224    -0.54300
O2346       O  0.92048733  0.68419346  0.95280724    -0.73600
C2347       C  0.92655747  0.65802134  0.94437948     0.98700
O2348       O  0.82176006  0.54311408  0.91361684    -0.62400
O2349       O  0.70745305  0.63097086  0.92459340    -0.57200
O2350       O  0.76933675  0.55931651  0.93895927    -0.93900
O2351       O  0.74296940  0.59340033  0.96120591    -0.92300
O2352       O  0.67470547  0.58686047  0.84382643    -0.92700
O2353       O  0.69651374  0.54399481  0.82007178    -0.91500
C2354       C  0.74271172  0.56210661  0.96034238     1.17600
H2355       H  0.74510299  0.67631397  0.85940648     0.33500
H2356       H  0.78529034  0.58023192  0.80491553     0.44400
H2357       H  0.84555684  0.64998273  0.96188700     0.37900
H2358       H  0.91438840  0.74010510  0.82451172     0.34400
H2359       H  0.74805382  0.62234587  0.72891420     0.26200
H2360       H  0.93067903  0.65069359  0.77839421     0.32100
H2361       H  0.97381262  0.71282741  0.87806200     0.38000
H2362       H  0.65703810  0.57947921  0.81803808     0.32500
H2363       H  0.69696059  0.62023475  0.95316062     0.31300
H2364       H  0.79642058  0.65370869  0.51472716     0.33000
H2365       H  0.87187658  0.72650905  0.97644188     0.32000
H2366       H  0.70940515  0.53481412  0.83925331     0.36000
H2367       H  0.80024242  0.52126307  0.89510344     0.28700
H2368       H  0.85216781  0.79652070  0.78197100     0.33000
H2369       H  0.93639197  0.79282002  0.87948108     0.35800
H2370       H  0.70695684  0.65461648  0.92271855     0.28400
H2371       H  0.84896002  0.54733334  0.90568891     0.41300
H2372       H  0.84217513  0.65744675  0.70205834     0.31300
H2373       H  0.77465040  0.60590961  0.74002478     0.39000
H2374       H  0.89567886  0.76676702  0.95154690     0.30800
H2375       H  0.94992602  0.69046055  0.80394958     0.30900
H2376       H  0.87843156  0.81157931  0.82392969     0.31100
C2377       C  0.97588505  0.93018348  0.98267149     0.80300
N2378       N  0.93866538  0.92731523  0.98224079    -0.78000
C2379       C  0.94038063  0.96129454  0.98142105     0.82800
N2380       N  0.97847359  0.49694877  0.98101798    -0.77900
C2381       C  0.51507038  0.49992403  0.98174994     0.82900
N2382       N  0.51393748  0.96660174  0.98256551    -0.79600
N2383       N  0.70642241  0.49418323  0.49549952    -0.03400
C2384       C  0.66957811  0.96932963  0.51719842    -0.00800
C2385       C  0.64715335  0.98592838  0.51934742    -0.23700
C2386       C  0.67108821  0.52194885  0.49824758    -0.23900
C2387       C  0.70770039  0.52654661  0.98408546    -0.00900
H2388       H  0.61723768  0.97376699  0.53536057     0.12900
H2389       H  0.66292452  0.54280248  0.99429297     0.13000
N2390       N  0.77386086  0.77467374  0.97307347    -0.03400
C2391       C  0.78505705  0.80914596  0.49082511    -0.00800
C2392       C  0.82496280  0.83970851  0.47624228    -0.23700
C2393       C  0.83785836  0.82316315  0.94790634    -0.23900
C2394       C  0.80561525  0.78294727  0.94669829    -0.00900
H2395       H  0.84269571  0.87065401  0.48513695     0.12900
H2396       H  0.86766308  0.83864245  0.93086988     0.13000
N2397       N  0.00100442  0.70387550  0.97587449    -0.03400
C2398       C  0.53496473  0.70275449  0.48452941    -0.00800
C2399       C  0.52362593  0.66486068  0.47563690    -0.23700
C2400       C  0.98198935  0.64279628  0.95998948    -0.23900
C2401       C  0.96847985  0.66742940  0.96050823    -0.00900
H2402       H  0.54342440  0.65435888  0.47967233     0.12900
H2403       H  0.96383644  0.61224805  0.94933174     0.13000
Zr2404     Zr  0.66198793  0.76960129  0.57543248     2.17500
O2405       O  0.64335994  0.70317120  0.56219914    -0.51200
O2406       O  0.72045844  0.78412843  0.52893117    -0.74400
O2407       O  0.59981183  0.72985864  0.52566316    -0.81200
O2408       O  0.70640293  0.77766268  0.68854196    -0.82900
O2409       O  0.58359381  0.77133827  0.50110172    -0.78600
O2410       O  0.67003283  0.73485374  0.63386755    -0.90200
O2411       O  0.77446065  0.84963550  0.53242508    -0.76200
O2412       O  0.68308262  0.82589365  0.53314984    -0.85700
O2413       O  0.72564135  0.82490335  0.60775436    -0.85400
O2414       O  0.60627003  0.77881708  0.58082864    -0.72100
O2415       O  0.64916093  0.77930429  0.64650756    -0.84200
Zr2416     Zr  0.66492289  0.89457835  0.63759496     2.26400
Zr2417     Zr  0.62729716  0.83523854  0.53736411     2.06300
Zr2418     Zr  0.71086720  0.83767614  0.67649946     2.10000
Zr2419     Zr  0.74483502  0.88020586  0.56660581     1.78800
O2420       O  0.70363176  0.82300785  0.75164534    -0.93000
O2421       O  0.74159608  0.89213143  0.49274220    -0.40900
O2422       O  0.72527391  0.89065737  0.63400213    -0.77500
O2423       O  0.69056080  0.89059227  0.56909123    -0.96200
O2424       O  0.60514903  0.83712792  0.60724940    -0.89500
O2425       O  0.65173586  0.84193677  0.68194406    -0.92300
C2426       C  0.75824943  0.81432100  0.51948175     1.01400
C2427       C  0.68868988  0.74386976  0.67017381     1.14400
C2428       C  0.57636944  0.73679983  0.50354970     1.05100
O2429       O  0.63422433  0.83999025  0.46086851    -0.94500
O2430       O  0.64543473  0.90130637  0.51797365    -0.90200
O2431       O  0.66346782  0.93493409  0.58014999    -0.83400
C2432       C  0.65764514  0.93258543  0.53981529     1.11800
O2433       O  0.54336136  0.71210865  0.64211660    -0.96500
Zr2434     Zr  0.59145238  0.78380876  0.65100265     1.88900
O2435       O  0.59200051  0.86773218  0.67005454    -0.73100
O2436       O  0.56267630  0.83232276  0.53901585    -0.52400
O2437       O  0.52170539  0.76485237  0.62817321    -0.97000
O2438       O  0.59310288  0.75048730  0.71319616    -0.54300
O2439       O  0.57201376  0.81138735  0.70256148    -0.73600
C2440       C  0.56531276  0.83703848  0.69342508     0.98700
O2441       O  0.67062366  0.95231371  0.66422074    -0.62400
O2442       O  0.78662941  0.86776368  0.67283261    -0.57200
O2443       O  0.72366681  0.93668271  0.68765797    -0.93900
O2444       O  0.74970629  0.90264412  0.71130817    -0.92300
O2445       O  0.82074683  0.91562920  0.58071429    -0.92700
O2446       O  0.79368036  0.95150086  0.57481078    -0.91500
C2447       C  0.75006047  0.93400898  0.70975810     1.17600
H2448       H  0.74753710  0.82042897  0.60834597     0.33500
H2449       H  0.70588686  0.91535078  0.55391428     0.44400
H2450       H  0.64792235  0.84626834  0.71099144     0.37900
H2451       H  0.57801893  0.75588841  0.57455478     0.34400
H2452       H  0.73938364  0.87016524  0.47727418     0.26200
H2453       H  0.54389836  0.81106615  0.55938999     0.32100
H2454       H  0.51456519  0.74817042  0.60276674     0.38000
H2455       H  0.82353240  0.89685492  0.59712090     0.32500
H2456       H  0.79719360  0.87765756  0.70169424     0.31300
H2457       H  0.69179638  0.83681761  0.76359701     0.33000
H2458       H  0.61839518  0.77133954  0.72930578     0.32000
H2459       H  0.77772271  0.95935040  0.59101884     0.36000
H2460       H  0.69145966  0.97403807  0.64521592     0.28700
H2461       H  0.64088807  0.70023401  0.53123374     0.33000
H2462       H  0.56165293  0.70398532  0.63235531     0.35800
H2463       H  0.78845330  0.84507060  0.66918460     0.28400
H2464       H  0.64313560  0.94787503  0.65729077     0.41300
H2465       H  0.62471449  0.85671437  0.95218305     0.31300
H2466       H  0.71376054  0.88772884  0.48839178     0.39000
H2467       H  0.60018730  0.73217852  0.70355089     0.30800
H2468       H  0.57009996  0.85710463  0.55283075     0.30900
H2469       H  0.61381504  0.68470579  0.57260462     0.31100
C2470       C  0.55365842  0.53599897  0.70693047     0.80300
N2471       N  0.01643936  0.99979125  0.70272791    -0.78000
C2472       C  0.97900196  0.99531152  0.70298323     0.82800
N2473       N  0.97845274  0.52759319  0.70715155    -0.77900
C2474       C  0.51550240  0.56449890  0.71068255     0.82900
N2475       N  0.55351042  0.56884067  0.71135563    -0.79600
N2476       N  0.78602057  0.00236074  0.74400421    -0.03400
C2477       C  0.82217183  0.52692437  0.76694043    -0.00800
C2478       C  0.84413195  0.50998303  0.77083028    -0.23700
C2479       C  0.82065456  0.97399993  0.74964762    -0.23900
C2480       C  0.78469116  0.96971118  0.73372102    -0.00900
H2481       H  0.87341261  0.52191043  0.78810883     0.12900
H2482       H  0.82864854  0.95293346  0.74689223     0.13000
N2483       N  0.49009506  0.79047313  0.72307275    -0.03400
C2484       C  0.95677609  0.79211977  0.73333005    -0.00800
C2485       C  0.96896663  0.83059532  0.72633841    -0.23700
C2486       C  0.51049837  0.85257088  0.71059277    -0.23900
C2487       C  0.52313566  0.82729162  0.70904530    -0.00900
H2488       H  0.94994146  0.84167313  0.73213101     0.12900
H2489       H  0.52933609  0.88361759  0.70167654     0.13000
N2490       N  0.72138486  0.72089527  0.71884183    -0.03400
C2491       C  0.70888862  0.68667090  0.73826193    -0.00800
C2492       C  0.66780598  0.65678741  0.72543809    -0.23700
C2493       C  0.65519348  0.67367377  0.69715647    -0.23900
C2494       C  0.68888503  0.71328047  0.69398909    -0.00900
H2495       H  0.64893475  0.62611183  0.73564141     0.12900
H2496       H  0.62454567  0.65894561  0.68169624     0.13000
C2497       C  0.95183241  0.63180940  0.66159537    -0.17700
C2498       C  0.94689185  0.66270093  0.66419755    -0.19900
C2499       C  0.96870584  0.69224849  0.69514551     0.20800
C2500       C  0.49467290  0.68998849  0.72471346    -0.02800
C2501       C  0.49986648  0.65887419  0.72194499    -0.05900
C2502       C  0.97879621  0.63007595  0.68979469     0.21100
C2503       C  0.52669696  0.65702361  0.75071618     0.19200
C2504       C  0.54586441  0.68494549  0.78364049    -0.17300
C2505       C  0.54010011  0.71544212  0.78686527    -0.19600
C2506       C  0.51580444  0.71905991  0.75665806     0.20700
C2507       C  0.51290839  0.75152793  0.75713741    -0.32600
C2508       C  0.48970549  0.75533159  0.72567355     0.01400
C2509       C  0.96633059  0.72481132  0.69599847    -0.23900
C2510       C  0.98521097  0.60014388  0.68618547    -0.28500
C2511       C  0.51290416  0.59873047  0.71372783     0.07100
C2512       C  0.53364847  0.62723667  0.74600355    -0.27200
H2513       H  0.93520336  0.60969035  0.63698228     0.11800
H2514       H  0.92674046  0.66397183  0.64142011     0.12900
H2515       H  0.56587781  0.68358997  0.80651841     0.12000
H2516       H  0.55594701  0.73706690  0.81202394     0.11200
H2517       H  0.52983037  0.77457936  0.78081265     0.16600
H2518       H  0.94751797  0.72740009  0.67262166     0.12500
H2519       H  0.96870426  0.57781481  0.66169512     0.15400
H2520       H  0.55403900  0.62548165  0.76801013     0.15200
C2521       C  0.72413998  0.55969274  0.66409262    -0.17700
C2522       C  0.69232800  0.56615748  0.66003267    -0.19900
C2523       C  0.65773739  0.54815544  0.68807487     0.20800
C2524       C  0.65405216  0.02157853  0.71890989    -0.02800
C2525       C  0.68585005  0.01488450  0.72286411    -0.05900
C2526       C  0.72197611  0.53525098  0.69643808     0.21100
C2527       C  0.68182504  0.98826185  0.75380020     0.19200
C2528       C  0.64505505  0.96678749  0.77869312    -0.17300
C2529       C  0.61395062  0.97391515  0.77526906    -0.19600
C2530       C  0.61877740  0.00192045  0.74626074     0.20700
C2531       C  0.58839594  0.00996591  0.74371015    -0.32600
C2532       C  0.59170096  0.53647288  0.71351774     0.01400
C2533       C  0.62635384  0.55554455  0.68552588    -0.23900
C2534       C  0.75561667  0.53166003  0.70388288    -0.28500
C2535       C  0.75256363  0.00711264  0.73651128     0.07100
C2536       C  0.71524658  0.98462102  0.76034168    -0.27200
H2537       H  0.75117610  0.57492455  0.64295717     0.11800
H2538       H  0.69529581  0.58594803  0.63557756     0.12900
H2539       H  0.64123364  0.94577959  0.80204156     0.12000
H2540       H  0.58642754  0.95796952  0.79577090     0.11200
H2541       H  0.56094878  0.99434244  0.76442129     0.16600
H2542       H  0.62797940  0.57473917  0.66108223     0.12500
H2543       H  0.78404299  0.54781401  0.68461365     0.15400
H2544       H  0.71280670  0.96480087  0.78448350     0.15200
C2545       C  0.86004775  0.81778910  0.65749717    -0.17700
C2546       C  0.89533878  0.85724283  0.65368375    -0.19900
C2547       C  0.90093578  0.88623480  0.68165018     0.20800
C2548       C  0.87162624  0.87528518  0.71472214    -0.02800
C2549       C  0.83651634  0.83540113  0.71906571    -0.05900
C2550       C  0.83016890  0.80678426  0.68957857     0.21100
C2551       C  0.80627845  0.82466329  0.75120577     0.19200
C2552       C  0.81257061  0.85347168  0.77988482    -0.17300
C2553       C  0.84747453  0.89309772  0.77556409    -0.19600
C2554       C  0.87657105  0.90439927  0.74256023     0.20700
C2555       C  0.91041331  0.94430113  0.73672692    -0.32600
C2556       C  0.93989503  0.95505522  0.70431998     0.01400
C2557       C  0.93525922  0.92604455  0.67707419    -0.23900
C2558       C  0.79284555  0.76823528  0.69132045    -0.28500
C2559       C  0.76205628  0.75818908  0.72191755     0.07100
C2560       C  0.76927605  0.78579286  0.75264404    -0.27200
H2561       H  0.85563835  0.79606473  0.63481849     0.11800
H2562       H  0.91776156  0.86523399  0.62832894     0.12900
H2563       H  0.78980811  0.84558816  0.80484047     0.12000
H2564       H  0.85119015  0.91504976  0.79745906     0.11200
H2565       H  0.91484404  0.96677177  0.75833826     0.16600
H2566       H  0.95859311  0.93457274  0.65248350     0.12500
H2567       H  0.78655234  0.74639340  0.66779589     0.15400
H2568       H  0.74495055  0.77742780  0.77600237     0.15200
C2569       C  0.69091314  0.64437444  0.04099845    -0.17700
C2570       C  0.65546956  0.60464469  0.04054229    -0.19900
C2571       C  0.62281077  0.59159115  0.01089330     0.20800
C2572       C  0.62540765  0.61905566  0.98205680    -0.02800
C2573       C  0.66100162  0.65896034  0.98249680    -0.05900
C2574       C  0.69421710  0.67157750  0.01176809     0.21100
C2575       C  0.66430427  0.68581130  0.95227478     0.19200
C2576       C  0.63153230  0.67300975  0.92299266    -0.17300
C2577       C  0.59598340  0.63357327  0.92293231    -0.19600
C2578       C  0.59294337  0.60645123  0.95198685     0.20700
C2579       C  0.55785998  0.56688404  0.95147198    -0.32600
C2580       C  0.55495579  0.53955058  0.98007036     0.01400
C2581       C  0.58755953  0.55165152  0.00943432    -0.23900
C2582       C  0.73082889  0.71071301  0.00991385    -0.28500
C2583       C  0.73457651  0.73661556  0.97871368     0.07100
C2584       C  0.70118389  0.72453356  0.95069227    -0.27200
H2585       H  0.71612655  0.65363815  0.06364023     0.11800
H2586       H  0.65384739  0.58402529  0.06300770     0.12900
H2587       H  0.63369148  0.69334973  0.89975200     0.12000
H2588       H  0.57108733  0.62416076  0.89983802     0.11200
H2589       H  0.53238216  0.55724437  0.92896716     0.16600
H2590       H  0.58471099  0.53041361  0.03188157     0.12500
H2591       H  0.75720480  0.72067367  0.03125474     0.15400
H2592       H  0.70483554  0.74508507  0.92680189     0.15200
C2593       C  0.44614775  0.77297001  0.04400775    -0.17700
C2594       C  0.44012926  0.80338410  0.04309807    -0.19900
C2595       C  0.46031185  0.83342219  0.01236952     0.20800
C2596       C  0.98762770  0.83323690  0.98289742    -0.02800
C2597       C  0.99301478  0.80220407  0.98325042    -0.05900
C2598       C  0.47183153  0.77162843  0.01368697     0.21100
C2599       C  0.01993136  0.80196183  0.95332145     0.19200
C2600       C  0.04216925  0.83316147  0.92422676    -0.17300
C2601       C  0.03713255  0.86402898  0.92411794    -0.19600
C2602       C  0.00958623  0.86404182  0.95293571     0.20700
C2603       C  0.00404845  0.89462985  0.95254396    -0.32600
C2604       C  0.97649436  0.89482795  0.98124668     0.01400
C2605       C  0.45429975  0.86398006  0.01089026    -0.23900
C2606       C  0.47618691  0.74005968  0.01257295    -0.28500
C2607       C  0.00045336  0.73836727  0.98068900     0.07100
C2608       C  0.02318796  0.76996509  0.95216690    -0.27200
H2609       H  0.42995090  0.74999770  0.56784106     0.11800
H2610       H  0.41954526  0.80331757  0.56637580     0.12900
H2611       H  0.06287320  0.83331372  0.90105932     0.12000
H2612       H  0.05437767  0.88764628  0.90111618     0.11200
H2613       H  0.02156103  0.91870698  0.93001941     0.16600
H2614       H  0.43386057  0.86468943  0.03371626     0.12500
H2615       H  0.45935770  0.71594100  0.53511235     0.15400
H2616       H  0.04265580  0.76889816  0.92837692     0.15200
C2617       C  0.77552354  0.44115091  0.92119247    -0.17700
C2618       C  0.80757560  0.43482106  0.92037816    -0.19900
C2619       C  0.83982088  0.45208562  0.95116211     0.20800
C2620       C  0.84142766  0.47829770  0.98108560    -0.02800
C2621       C  0.80930713  0.48469570  0.98190127    -0.05900
C2622       C  0.77494326  0.46439418  0.95323624     0.21100
C2623       C  0.81093389  0.51053854  0.51228887     0.19200
C2624       C  0.84605975  0.53201542  0.53941932    -0.17300
C2625       C  0.87756460  0.02528096  0.53899463    -0.19600
C2626       C  0.87464032  0.49750915  0.01094643     0.20700
C2627       C  0.90450077  0.98878509  0.01231410    -0.32600
C2628       C  0.90278524  0.96205712  0.98351572     0.01400
C2629       C  0.87077882  0.44414559  0.95245058    -0.23900
C2630       C  0.74025410  0.46683884  0.95816967    -0.28500
C2631       C  0.74070342  0.49027867  0.99054043     0.07100
C2632       C  0.77652822  0.51301351  0.51638680    -0.27200
H2633       H  0.75004066  0.42623197  0.89818667     0.11800
H2634       H  0.80640832  0.41548571  0.89646370     0.12900
H2635       H  0.84807608  0.55249492  0.56234592     0.12000
H2636       H  0.90359234  0.04097264  0.56136706     0.11200
H2637       H  0.93015191  0.00376896  0.53522140     0.16600
H2638       H  0.87079706  0.42521151  0.92880661     0.12500
H2639       H  0.71306217  0.45067703  0.93719120     0.15400
H2640       H  0.77698175  0.53206424  0.54022518     0.15200
loop_ 
_geom_bond_atom_site_label_1 
_geom_bond_atom_site_label_2 
_geom_bond_distance 
_geom_bond_site_symmetry_2 
_ccdc_geom_bond_type 
Zr1           O2   2.437       .  S
Zr1           O3   2.463       .  S
Zr1           O4   2.532       .  S
Zr1           O7   2.483       .  S
Zr1           O9   2.384       .  S
Zr1          O10   2.407       .  S
Zr1          O11   2.394       .  S
Zr1          O12   2.395       .  S
O2           H58   0.989       .  S
O2           H66   0.990       .  S
O3           C23   1.289       .  A
O4           C25   1.303       .  A
O5          Zr15   2.406       .  S
O5           C24   1.281       .  A
O6          Zr14   2.446       .  S
O6           C25   1.288       .  A
O7           C24   1.294       .  A
O8          Zr16   2.404       .  S
O8           C23   1.276       .  A
O9          Zr14   2.404       .  S
O9          Zr16   2.373       .  S
O10         Zr15   2.392       .  S
O10         Zr16   2.345       .  S
O10          H45   0.966       .  S
O11         Zr14   2.402       .  S
O11         Zr31   2.342       .  S
O11          H48   0.958       .  S
O12         Zr15   2.393       .  S
O12         Zr31   2.345       .  S
Zr13         O38   2.426       .  S
Zr13         O32   2.563       .  S
Zr13         O40   2.470       .  S
Zr13         O28   2.497       .  S
Zr13         O20   2.428       .  S
Zr13         O21   2.354       .  S
Zr13         O22   2.383       .  S
Zr13         O19   2.339       .  S
Zr14         O33   2.419       .  S
Zr14         O26   2.435       .  S
Zr14         O27   2.459       .  S
Zr14         O20   2.393       .  S
Zr14         O21   2.393       .  S
Zr15         O17   2.437       .  S
Zr15         O39   2.428       .  S
Zr15         O41   2.446       .  S
Zr15         O22   2.391       .  S
Zr15         O19   2.255       .  S
Zr16         O42   2.442       .  S
Zr16         O43   2.419       .  S
Zr16         O18   2.413       .  S
Zr16         O20   2.364       .  S
Zr16         O19   2.309       .  S
O17         H384   0.990       .  S
O18          H49   0.989       .  S
O18          H63   0.990       .  S
O20          H46   0.961       .  S
O21         Zr31   2.396       .  S
O22         Zr31   2.383       .  S
O22          H47   0.966       .  S
C23         C181   1.484       .  S
C24          C84   1.478       .  S
C25         C174   1.515       .  S
O26          H62   0.991       .  S
O27          C29   1.289       .  A
O28          C29   1.295       .  A
C29         C167   1.489       .  S
O30         Zr31   2.431       .  S
O30          H59   0.990       .  S
Zr31         O34   2.435       .  S
Zr31         O35   2.430       .  S
Zr31         O36   2.353       .  S
O32          C37   1.304       .  A
O33          H50   0.986       .  S
O33          H65   0.988       .  S
O34          H51   0.989       .  S
O35          H55   0.990       .  S
O35          H64   0.990       .  S
O36          C37   1.260       .  A
C37          C91   1.515       .  S
O38          H57   0.989       .  S
O38          H61   0.991       .  S
O39          H53   0.987       .  S
O39          H60   0.989       .  S
O40          C44   1.291       .  A
O41          C44   1.287       .  A
O42          H52   0.992       .  S
O43          H56   0.989       .  S
C44          C77   1.500       .  S
H54         O347   0.990       .  S
C67         C294   1.474       .  S
C67          N68   1.370       .  A
C67        N1392   1.361       .  A
N68          C69   1.366       .  A
C69         C318   1.470       .  S
C69         N730   1.348       .  A
N70         C729   1.348       .  A
N70        C1391   1.344       .  A
C71         C270   1.458   1_565  S
C71        N1390   1.344   1_455  A
C71         N732   1.351       .  A
N72        C1387   1.362   1_455  A
N72         C731   1.351       .  A
N73         C407   1.357   1_565  A
N73         C734   1.363   1_556  A
N73         C651   1.431       .  S
C74         C122   1.489       .  S
C74         N733   1.363   1_554  A
C74          C75   1.382       .  A
C75         C736   1.386   1_554  A
C75          H78   1.082       .  S
C76         C735   1.386   1_546  A
C76         C407   1.387       .  A
C76         H409   1.082       .  S
C77         N403   1.357   1_545  A
C77         C406   1.387       .  A
H79         C406   1.082       .  S
N80          C84   1.354       .  A
N80         C411   1.348       .  A
N80         C273   1.427       .  S
C81         C116   1.484   1_556  S
C81         N410   1.348       .  A
C81          C82   1.387       .  A
C82         C413   1.385       .  A
C82          H85   1.080       .  S
C83          C84   1.382       .  A
C83         C412   1.385       .  A
C83          H86   1.082       .  S
N87          C91   1.373       .  A
N87        C1738   1.365       .  A
N87         C297   1.445       .  S
C88         C118   1.511   1_556  S
C88        N1737   1.365       .  A
C88          C89   1.388       .  A
C89        C1740   1.398   1_455  A
C89          H92   1.082       .  S
C90          C91   1.386       .  A
C90        C1739   1.398       .  A
C90          H93   1.082       .  S
Zr94         O95   2.435       .  S
Zr94         O96   2.462       .  S
Zr94         O97   2.522       .  S
Zr94        O100   2.471       .  S
Zr94        O102   2.381       .  S
Zr94        O103   2.405       .  S
Zr94        O104   2.396       .  S
Zr94        O105   2.392       .  S
O95         H151   0.988       .  S
O95         H159   0.991       .  S
O96         C116   1.289       .  A
O97         C118   1.300       .  A
O98        Zr108   2.413       .  S
O98         C117   1.283       .  A
O99        Zr107   2.442       .  S
O99         C118   1.287       .  A
O100        C117   1.292       .  A
O101       Zr109   2.399       .  S
O101        C116   1.276       .  A
O102       Zr107   2.400       .  S
O102       Zr109   2.372       .  S
O103       Zr108   2.390       .  S
O103       Zr109   2.346       .  S
O103        H138   0.964       .  S
O104       Zr107   2.407       .  S
O104       Zr124   2.338       .  S
O104        H141   0.962       .  S
O105       Zr108   2.391       .  S
O105       Zr124   2.343       .  S
Zr106       O131   2.416       .  S
Zr106       O125   2.567       .  S
Zr106       O133   2.470       .  S
Zr106       O121   2.491       .  S
Zr106       O112   2.428       .  S
Zr106       O113   2.434       .  S
Zr106       O114   2.349       .  S
Zr106       O115   2.383       .  S
Zr107       O126   2.425       .  S
Zr107       O119   2.437   1_554  S
Zr107       O120   2.469       .  S
Zr107       O113   2.390       .  S
Zr107       O114   2.395       .  S
Zr108       O110   2.436       .  S
Zr108       O132   2.426       .  S
Zr108       O134   2.448       .  S
Zr108       O112   2.346       .  S
Zr108       O115   2.394       .  S
Zr109       O135   2.437       .  S
Zr109       O136   2.418       .  S
Zr109       O111   2.412   1_554  S
Zr109       O112   2.390       .  S
Zr109       O113   2.370       .  S
O110        H147   0.990       .  S
O111        H142   0.991       .  S
O111        H156   0.989       .  S
O113        H139   0.962       .  S
O114       Zr124   2.388       .  S
O115       Zr124   2.377       .  S
O115        H140   0.966       .  S
C117        C184   1.475       .  S
O119        H485   0.989       .  S
O120        C122   1.290       .  A
O121        C122   1.293       .  A
O123       Zr124   2.432       .  S
O123        H152   0.991       .  S
Zr124       O127   2.434       .  S
Zr124       O128   2.427       .  S
Zr124       O129   2.352       .  S
O125        C130   1.305       .  A
O126        H143   0.988       .  S
O126        H158   0.991       .  S
O127        H144   0.990       .  S
O128        H148   0.989       .  S
O128        H157   0.990       .  S
O129        C130   1.261       .  A
C130        C177   1.516       .  S
O131        H150   0.989       .  S
O131        H154   0.990       .  S
O132        H146   0.988       .  S
O132        H153   0.987       .  S
O133        C137   1.291       .  A
O134        C137   1.288       .  A
O135        H145   0.990       .  S
O136        H149   0.990       .  S
C137        C170   1.499       .  S
H155        O449   0.989       .  S
C160        C222   1.471       .  S
C160        N165   1.367       .  A
C160       N2141   1.351   1_545  A
N161        C162   1.345       .  A
N161       C2140   1.351       .  A
C162        C246   1.460       .  S
C162        N823   1.352       .  A
N163        C822   1.352   1_545  A
N163       C1484   1.360       .  A
C164        C201   1.477       .  S
C164        N165   1.370       .  A
C164       N1483   1.360   1_455  A
N166        C170   1.359       .  A
N166        C827   1.363       .  A
N166        C225   1.433       .  S
C167        N826   1.363       .  A
C167        C168   1.382       .  A
C168        C829   1.385   1_545  A
C168        H171   1.082       .  S
C169        C170   1.387       .  A
C169        C828   1.385       .  A
C169        H172   1.082       .  S
N173        C177   1.374   1_655  A
N173       C1494   1.366       .  A
N173        C198   1.445       .  S
C174       N1493   1.366       .  A
C174        C175   1.388       .  A
C175       C1496   1.398       .  A
C175        H178   1.082       .  S
C176        C177   1.386       .  A
C176       C1495   1.398   1_455  A
C176        H179   1.082       .  S
N180        C184   1.353       .  A
N180        C181   1.349       .  A
N180        C249   1.428       .  S
C181        C182   1.389       .  A
C182        C183   1.385       .  A
C182        H185   1.082       .  S
C183        C184   1.381       .  A
C183        H186   1.082       .  S
C187        C188   1.397       .  A
C187        C192   1.404       .  A
C187        H203   1.084       .  S
C188        C189   1.403       .  A
C188        H204   1.084       .  S
C189        C199   1.400       .  A
C189       C1510   1.412       .  A
C190        C196   1.413   1_655  A
C190        C191   1.413       .  A
C190       C1509   1.412       .  A
C191        C193   1.414   1_655  A
C191       C1512   1.411       .  A
C192        C200   1.399       .  A
C192       C1511   1.411       .  A
C193        C202   1.411       .  A
C193        C194   1.406       .  A
C194        C195   1.404       .  A
C194        H205   1.083       .  S
C195        C196   1.406       .  A
C195        H206   1.083       .  S
C196        C197   1.409       .  A
C197        C198   1.408   1_455  A
C197        H207   1.084       .  S
C198       C1519   1.402       .  A
C199       C1518   1.402       .  A
C199        H208   1.084       .  S
C200       C1521   1.405       .  A
C200        H209   1.085       .  S
C201        C202   1.407       .  A
C201       C1520   1.405   1_455  A
C202        H210   1.084       .  S
C211        C212   1.405       .  A
C211        C216   1.407       .  A
C211        H227   1.083       .  S
C212        C213   1.406       .  A
C212        H228   1.083       .  S
C213        C223   1.412       .  A
C213        C874   1.415       .  A
C214        C220   1.409       .  A
C214        C215   1.410       .  A
C214        C873   1.415       .  A
C215        C217   1.413       .  A
C215        C876   1.413       .  A
C216        C224   1.408       .  A
C216        C875   1.413       .  A
C217        C226   1.397       .  A
C217        C218   1.402       .  A
C218        C219   1.395       .  A
C218        H229   1.084       .  S
C219        C220   1.403       .  A
C219        H230   1.084       .  S
C220        C221   1.393       .  A
C221        C882   1.404       .  A
C221        H231   1.085       .  S
C222        C223   1.406       .  A
C222        C881   1.404       .  A
C223        H232   1.084       .  S
C224        C885   1.405       .  A
C224        H233   1.084       .  S
C225        C226   1.399       .  A
C225        C884   1.405       .  A
C226        H234   1.084       .  S
C235        C236   1.396       .  A
C235        C240   1.402       .  A
C235        H251   1.084       .  S
C236        C237   1.403       .  A
C236        H252   1.084       .  S
C237        C247   1.397       .  A
C237        C238   1.412       .  A
C238        C244   1.413       .  A
C238        C239   1.406       .  A
C239        C241   1.414       .  A
C239        C240   1.413       .  A
C240        C248   1.397       .  A
C241        C250   1.399       .  A
C241        C242   1.403       .  A
C242        C243   1.398       .  A
C242        H253   1.084       .  S
C243        C244   1.403       .  A
C243        H254   1.084       .  S
C244        C245   1.399       .  A
C245        C246   1.402       .  A
C245        H255   1.085       .  S
C246        C247   1.402       .  A
C247        H256   1.085       .  S
C248        C249   1.399       .  A
C248        H257   1.084       .  S
C249        C250   1.400       .  A
C250        H258   1.084       .  S
C259        C260   1.399       .  A
C259        C264   1.404       .  A
C259        H275   1.084       .  S
C260        C261   1.404       .  A
C260        H276   1.084       .  S
C261        C271   1.403       .  A
C261        C262   1.414       .  A
C262        C268   1.410       .  A
C262        C263   1.405       .  A
C263        C265   1.414       .  A
C263        C264   1.413       .  A
C264        C272   1.401       .  A
C265        C274   1.394       .  A
C265        C266   1.400       .  A
C266        C267   1.393       .  A
C266        H277   1.084       .  S
C267        C268   1.402       .  A
C267        H278   1.084       .  S
C268        C269   1.391       .  A
C269        C270   1.401       .  A
C269        H279   1.085       .  S
C270        C271   1.402       .  A
C271        H280   1.084       .  S
C272        C273   1.402       .  A
C272        H281   1.084       .  S
C273        C274   1.396       .  A
C274        H282   1.084       .  S
C283        C284   1.404       .  A
C283        C288   1.406       .  A
C283        H629   1.083       .  S
C284        C285   1.406       .  A
C284        H630   1.084       .  S
C285        C295   1.410       .  A
C285       C1606   1.414       .  A
C286        C292   1.411       .  A
C286        C287   1.412       .  A
C286       C1605   1.414       .  A
C287        C289   1.412       .  A
C287       C1608   1.414       .  A
C288        C296   1.408       .  A
C288       C1607   1.414       .  A
C289        C298   1.398       .  A
C289        C290   1.402       .  A
C290        C291   1.396       .  A
C290        H301   1.084       .  S
C291        C292   1.403       .  A
C291        H302   1.084       .  S
C292        C293   1.398       .  A
C293        C294   1.404       .  A
C293        H303   1.085       .  S
C294       C1615   1.406       .  A
C295       C1614   1.406       .  A
C295        H304   1.084       .  S
C296       C1617   1.408   1_655  A
C296        H635   1.084       .  S
C297        C298   1.401       .  A
C297       C1616   1.408       .  A
C298        H306   1.084       .  S
H299        C613   1.083       .  S
H300        C614   1.084       .  S
H305        C626   1.084       .  S
C307        C308   1.404       .  A
C307        C312   1.408       .  A
C307        H323   1.083       .  S
C308        C309   1.406       .  A
C308        H324   1.083       .  S
C309        C319   1.410       .  A
C309        C310   1.414       .  A
C310        C316   1.409       .  A
C310        C311   1.409       .  A
C311        C312   1.412       .  A
C311        C643   1.413   1_565  A
C312        C320   1.408       .  A
C313        C322   1.395       .  A
C313        C314   1.402       .  A
C313        C641   1.413   1_544  A
C314        C975   1.395       .  A
C314        H325   1.084       .  S
C315        C974   1.395       .  A
C315       C1306   1.403       .  A
C315        H326   1.084       .  S
C316       C1305   1.403   1_565  A
C316        C977   1.393       .  A
C317        C318   1.405       .  A
C317        C976   1.393       .  A
C317        H657   1.085       .  S
C318        C979   1.406       .  A
C319        C978   1.406       .  A
C319        H328   1.084       .  S
C320        C321   1.405       .  A
C320        H329   1.084       .  S
C321        N403   1.431       .  S
C321        C652   1.398   1_565  A
C322        C651   1.398   1_544  A
C322        H330   1.084       .  S
H327        C647   1.085       .  S
Zr331       O332   2.437       .  S
Zr331       O333   2.463       .  S
Zr331       O334   2.532       .  S
Zr331       O337   2.483       .  S
Zr331       O339   2.384       .  S
Zr331       O340   2.407       .  S
Zr331       O341   2.394       .  S
Zr331       O342   2.395       .  S
O332        H388   0.989       .  S
O332        H396   0.990       .  S
O333        C353   1.289       .  A
O334        C355   1.303       .  A
O335       Zr345   2.405       .  S
O335        C354   1.281       .  A
O336       Zr344   2.446       .  S
O336        C355   1.288       .  A
O337        C354   1.294       .  A
O338       Zr346   2.404       .  S
O338        C353   1.276       .  A
O339       Zr344   2.404       .  S
O339       Zr346   2.373       .  S
O340       Zr345   2.392       .  S
O340       Zr346   2.345       .  S
O340        H375   0.966       .  S
O341       Zr344   2.402       .  S
O341       Zr361   2.342       .  S
O341        H378   0.958       .  S
O342       Zr345   2.393       .  S
O342       Zr361   2.345       .  S
Zr343       O368   2.426       .  S
Zr343       O362   2.563       .  S
Zr343       O370   2.470       .  S
Zr343       O358   2.497       .  S
Zr343       O350   2.428       .  S
Zr343       O351   2.354       .  S
Zr343       O352   2.383       .  S
Zr343       O349   2.339       .  S
Zr344       O363   2.419       .  S
Zr344       O356   2.435       .  S
Zr344       O357   2.459       .  S
Zr344       O350   2.393       .  S
Zr344       O351   2.393       .  S
Zr345       O347   2.437   1_556  S
Zr345       O369   2.428       .  S
Zr345       O371   2.446       .  S
Zr345       O352   2.391       .  S
Zr345       O349   2.255       .  S
Zr346       O372   2.442       .  S
Zr346       O373   2.419       .  S
Zr346       O348   2.413       .  S
Zr346       O350   2.364       .  S
Zr346       O349   2.309       .  S
O348        H379   0.989       .  S
O348        H393   0.989       .  S
O350        H376   0.961       .  S
O351       Zr361   2.396       .  S
O352       Zr361   2.383       .  S
O352        H377   0.966       .  S
C353        C511   1.484       .  S
C354        C414   1.478       .  S
C355        C504   1.515       .  S
O356        H392   0.991       .  S
O357        C359   1.289       .  A
O358        C359   1.295       .  A
C359        C497   1.489       .  S
O360       Zr361   2.431       .  S
O360        H389   0.990       .  S
Zr361       O364   2.435       .  S
Zr361       O365   2.430       .  S
Zr361       O366   2.353       .  S
O362        C367   1.304       .  A
O363        H380   0.986       .  S
O363        H395   0.988       .  S
O364        H381   0.989       .  S
O365        H385   0.990       .  S
O365        H394   0.990       .  S
O366        C367   1.260       .  A
C367        C421   1.515       .  S
O368        H387   0.989       .  S
O368        H391   0.991       .  S
O369        H383   0.987       .  S
O369        H390   0.989       .  S
O370        C374   1.291       .  A
O371        C374   1.287       .  A
O372        H382   0.992       .  S
O373        H386   0.989       .  S
C374        C407   1.500       .  S
C397        C624   1.474       .  S
C397        N398   1.370       .  A
C397       N1722   1.361       .  A
N398        C399   1.366       .  A
C399        C648   1.470       .  S
C399       N1060   1.348       .  A
N400       C1059   1.348       .  A
N400       C1721   1.344       .  A
C401        C600   1.458   1_565  S
C401       N1720   1.344   1_455  A
C401       N1062   1.351       .  A
N402       C1717   1.361   1_455  A
N402       C1061   1.351       .  A
N403       C1064   1.363       .  A
C404        C452   1.489       .  S
C404       N1063   1.363       .  A
C404        C405   1.382       .  A
C405       C1066   1.386       .  A
C405        H408   1.082       .  S
C406       C1065   1.386   1_545  A
N410        C414   1.354       .  A
N410        C603   1.427       .  S
C411        C446   1.484       .  S
C411        C412   1.387       .  A
C412        H415   1.080       .  S
C413        C414   1.382       .  A
C413        H416   1.082       .  S
N417        C421   1.373       .  A
N417       C1408   1.365       .  A
N417        C627   1.445       .  S
C418        C448   1.511       .  S
C418       N1407   1.365       .  A
C418        C419   1.388       .  A
C419       C1410   1.398   1_455  A
C419        H422   1.082       .  S
C420       C1409   1.398       .  A
C420        C421   1.386       .  A
C420        H423   1.082       .  S
Zr424       O425   2.435       .  S
Zr424       O426   2.462       .  S
Zr424       O427   2.522       .  S
Zr424       O430   2.470       .  S
Zr424       O432   2.381       .  S
Zr424       O433   2.405       .  S
Zr424       O434   2.396       .  S
Zr424       O435   2.392       .  S
O425        H481   0.988       .  S
O425        H489   0.991       .  S
O426        C446   1.289       .  A
O427        C448   1.300       .  A
O428       Zr438   2.413       .  S
O428        C447   1.283       .  A
O429       Zr437   2.442       .  S
O429        C448   1.287       .  A
O430        C447   1.292       .  A
O431       Zr439   2.399       .  S
O431        C446   1.276       .  A
O432       Zr437   2.400       .  S
O432       Zr439   2.372       .  S
O433       Zr438   2.390       .  S
O433       Zr439   2.346       .  S
O433        H468   0.964       .  S
O434       Zr437   2.407       .  S
O434       Zr454   2.338       .  S
O434        H471   0.962       .  S
O435       Zr438   2.391       .  S
O435       Zr454   2.343       .  S
Zr436       O461   2.416       .  S
Zr436       O455   2.567       .  S
Zr436       O463   2.469       .  S
Zr436       O451   2.491       .  S
Zr436       O442   2.428       .  S
Zr436       O443   2.434       .  S
Zr436       O444   2.349       .  S
Zr436       O445   2.383       .  S
Zr437       O456   2.425       .  S
Zr437       O449   2.437       .  S
Zr437       O450   2.469       .  S
Zr437       O443   2.390       .  S
Zr437       O444   2.395       .  S
Zr438       O440   2.436       .  S
Zr438       O462   2.426       .  S
Zr438       O464   2.448       .  S
Zr438       O442   2.346       .  S
Zr438       O445   2.394       .  S
Zr439       O465   2.437       .  S
Zr439       O466   2.418       .  S
Zr439       O441   2.412       .  S
Zr439       O442   2.390       .  S
Zr439       O443   2.370       .  S
O440        H477   0.990       .  S
O441        H472   0.991       .  S
O441        H486   0.989       .  S
O443        H469   0.962       .  S
O444       Zr454   2.388       .  S
O445       Zr454   2.377       .  S
O445        H470   0.966       .  S
C447        C514   1.475       .  S
O450        C452   1.290       .  A
O451        C452   1.293       .  A
O453       Zr454   2.432       .  S
O453        H482   0.991       .  S
Zr454       O457   2.434       .  S
Zr454       O458   2.427       .  S
Zr454       O459   2.352       .  S
O455        C460   1.305       .  A
O456        H473   0.988       .  S
O456        H488   0.991       .  S
O457        H474   0.990       .  S
O458        H478   0.989       .  S
O458        H487   0.990       .  S
O459        C460   1.261       .  A
C460        C507   1.515       .  S
O461        H480   0.989       .  S
O461        H484   0.990       .  S
O462        H476   0.988       .  S
O462        H483   0.987       .  S
O463        C467   1.291       .  A
O464        C467   1.288       .  A
O465        H475   0.990       .  S
O466        H479   0.990       .  S
C467        C500   1.499       .  S
C490        C552   1.471       .  S
C490       N2471   1.351   1_545  A
C490        N495   1.367       .  A
N491       C2470   1.351       .  A
N491        C492   1.345       .  A
C492        C576   1.460       .  S
C492       N1153   1.352       .  A
N493       C1152   1.352   1_545  A
N493       C1814   1.360       .  A
C494        C531   1.477       .  S
C494       N1813   1.360   1_455  A
C494        N495   1.370       .  A
N496        C500   1.359       .  A
N496       C1157   1.363       .  A
N496        C555   1.433       .  S
C497       N1156   1.363       .  A
C497        C498   1.382       .  A
C498       C1159   1.385   1_545  A
C498        H501   1.082       .  S
C499       C1158   1.385       .  A
C499        C500   1.387       .  A
C499        H502   1.082       .  S
N503        C507   1.374   1_655  A
N503       C1824   1.366       .  A
N503        C528   1.445       .  S
C504       N1823   1.366       .  A
C504        C505   1.388       .  A
C505       C1826   1.398       .  A
C505        H508   1.082       .  S
C506       C1825   1.398   1_455  A
C506        C507   1.386       .  A
C506        H509   1.082       .  S
N510        C514   1.353       .  A
N510        C511   1.349       .  A
N510        C579   1.428       .  S
C511        C512   1.389       .  A
C512        C513   1.385       .  A
C512        H515   1.082       .  S
C513        C514   1.381       .  A
C513        H516   1.082       .  S
C517        C518   1.397       .  A
C517        C522   1.404       .  A
C517        H533   1.084       .  S
C518        C519   1.403       .  A
C518        H534   1.084       .  S
C519        C529   1.400       .  A
C519       C1840   1.412       .  A
C520       C1839   1.412       .  A
C520        C526   1.413   1_655  A
C520        C521   1.413       .  A
C521        C523   1.414   1_655  A
C521       C1842   1.411       .  A
C522       C1841   1.411       .  A
C522        C530   1.399       .  A
C523        C532   1.411       .  A
C523        C524   1.406       .  A
C524        C525   1.404       .  A
C524        H535   1.083       .  S
C525        C526   1.406       .  A
C525        H536   1.083       .  S
C526        C527   1.409       .  A
C527        C528   1.408   1_455  A
C527        H537   1.084       .  S
C528       C1849   1.402       .  A
C529       C1848   1.402       .  A
C529        H538   1.084       .  S
C530       C1851   1.405       .  A
C530        H539   1.085       .  S
C531       C1850   1.405   1_455  A
C531        C532   1.407       .  A
C532        H540   1.084       .  S
C541        C542   1.405       .  A
C541        C546   1.407       .  A
C541        H557   1.083       .  S
C542        C543   1.406       .  A
C542        H558   1.083       .  S
C543        C553   1.412       .  A
C543       C1204   1.415       .  A
C544       C1203   1.415       .  A
C544        C550   1.409       .  A
C544        C545   1.410       .  A
C545        C547   1.413       .  A
C545       C1206   1.413       .  A
C546       C1205   1.413       .  A
C546        C554   1.408       .  A
C547        C556   1.397       .  A
C547        C548   1.402       .  A
C548        C549   1.395       .  A
C548        H559   1.084       .  S
C549        C550   1.403       .  A
C549        H560   1.084       .  S
C550        C551   1.393       .  A
C551       C1212   1.404       .  A
C551        H561   1.085       .  S
C552       C1211   1.404       .  A
C552        C553   1.406       .  A
C553        H562   1.084       .  S
C554       C1215   1.405       .  A
C554        H563   1.084       .  S
C555       C1214   1.405       .  A
C555        C556   1.399       .  A
C556        H564   1.084       .  S
C565        C566   1.396       .  A
C565        C570   1.402       .  A
C565        H581   1.084       .  S
C566        C567   1.403       .  A
C566        H582   1.084       .  S
C567        C577   1.397       .  A
C567        C568   1.412       .  A
C568        C574   1.413       .  A
C568        C569   1.406       .  A
C569        C571   1.414       .  A
C569        C570   1.413       .  A
C570        C578   1.397       .  A
C571        C580   1.399       .  A
C571        C572   1.403       .  A
C572        C573   1.398       .  A
C572        H583   1.084       .  S
C573        C574   1.403       .  A
C573        H584   1.084       .  S
C574        C575   1.399       .  A
C575        C576   1.402       .  A
C575        H585   1.085       .  S
C576        C577   1.402       .  A
C577        H586   1.085       .  S
C578        C579   1.399       .  A
C578        H587   1.084       .  S
C579        C580   1.400       .  A
C580        H588   1.084       .  S
C589        C590   1.399       .  A
C589        C594   1.404       .  A
C589        H605   1.084       .  S
C590        C591   1.404       .  A
C590        H606   1.084       .  S
C591        C601   1.403       .  A
C591        C592   1.414   1_554  A
C592        C598   1.410       .  A
C592        C593   1.405       .  A
C593        C595   1.414       .  A
C593        C594   1.413   1_556  A
C594        C602   1.401       .  A
C595        C604   1.394       .  A
C595        C596   1.400       .  A
C596        C597   1.393       .  A
C596        H607   1.084       .  S
C597        C598   1.402       .  A
C597        H608   1.084       .  S
C598        C599   1.391       .  A
C599        C600   1.401       .  A
C599        H609   1.085       .  S
C600        C601   1.402   1_556  A
C601        H610   1.084       .  S
C602        C603   1.402   1_554  A
C602        H611   1.084       .  S
C603        C604   1.396       .  A
C604        H612   1.084       .  S
C613        C614   1.404       .  A
C613        C618   1.406       .  A
C614        C615   1.406       .  A
C615        C625   1.410       .  A
C615       C1936   1.414   1_554  A
C616       C1935   1.414   1_556  A
C616        C622   1.411       .  A
C616        C617   1.412       .  A
C617        C619   1.412       .  A
C617       C1938   1.414   1_556  A
C618       C1937   1.414   1_554  A
C618        C626   1.408       .  A
C619        C628   1.398       .  A
C619        C620   1.402       .  A
C620        C621   1.396       .  A
C620        H631   1.084       .  S
C621        C622   1.403       .  A
C621        H632   1.084       .  S
C622        C623   1.398       .  A
C623        C624   1.404       .  A
C623        H633   1.085       .  S
C624       C1945   1.406   1_556  A
C625       C1944   1.406   1_554  A
C625        H634   1.084       .  S
C626       C1947   1.408   1_654  A
C627       C1946   1.408   1_556  A
C627        C628   1.401       .  A
C628        H636   1.084       .  S
C637        C638   1.404       .  A
C637        C642   1.408       .  A
C637        H653   1.083       .  S
C638        C639   1.406       .  A
C638        H654   1.083       .  S
C639        C649   1.410       .  A
C639        C640   1.414       .  A
C640        C646   1.409   1_556  A
C640        C641   1.409       .  A
C641        C642   1.412       .  A
C642        C650   1.408       .  A
C643        C652   1.395       .  A
C643        C644   1.402       .  A
C644       C1305   1.395       .  A
C644        H655   1.084       .  S
C645       C1304   1.395       .  A
C645        C976   1.403       .  A
C645        H656   1.084       .  S
C646        C975   1.403   1_565  A
C646       C1307   1.393       .  A
C647       C1306   1.393       .  A
C647        C648   1.405   1_554  A
C648       C1309   1.406       .  A
C649       C1308   1.406       .  A
C649        H658   1.084       .  S
C650        C651   1.405       .  A
C650        H659   1.084       .  S
C652        H660   1.084       .  S
Zr661       O662   2.437       .  S
Zr661       O663   2.463       .  S
Zr661       O664   2.532       .  S
Zr661       O667   2.483       .  S
Zr661       O669   2.384       .  S
Zr661       O670   2.407       .  S
Zr661       O671   2.394       .  S
Zr661       O672   2.395       .  S
O662        H718   0.988       .  S
O662        H726   0.990       .  S
O663        C683   1.289       .  A
O664        C685   1.303       .  A
O665       Zr675   2.405       .  S
O665        C684   1.281       .  A
O666       Zr674   2.446       .  S
O666        C685   1.288       .  A
O667        C684   1.294       .  A
O668       Zr676   2.404       .  S
O668        C683   1.276       .  A
O669       Zr674   2.404       .  S
O669       Zr676   2.373       .  S
O670       Zr675   2.392       .  S
O670       Zr676   2.345       .  S
O670        H705   0.966       .  S
O671       Zr674   2.402       .  S
O671       Zr691   2.342       .  S
O671        H708   0.958       .  S
O672       Zr675   2.393       .  S
O672       Zr691   2.345       .  S
Zr673       O698   2.426       .  S
Zr673       O692   2.563       .  S
Zr673       O700   2.470       .  S
Zr673       O688   2.497       .  S
Zr673       O680   2.428       .  S
Zr673       O681   2.354       .  S
Zr673       O682   2.383       .  S
Zr673       O679   2.339       .  S
Zr674       O693   2.419       .  S
Zr674       O686   2.435       .  S
Zr674       O687   2.459       .  S
Zr674       O680   2.393       .  S
Zr674       O681   2.393       .  S
Zr675       O677   2.437       .  S
Zr675       O699   2.428       .  S
Zr675       O701   2.446       .  S
Zr675       O682   2.391       .  S
Zr675       O679   2.255       .  S
Zr676       O702   2.442       .  S
Zr676       O703   2.419       .  S
Zr676       O678   2.413       .  S
Zr676       O680   2.364       .  S
Zr676       O679   2.309       .  S
O677       H1044   0.990       .  S
O678        H709   0.989       .  S
O678        H723   0.990       .  S
O680        H706   0.961       .  S
O681       Zr691   2.396       .  S
O682       Zr691   2.383       .  S
O682        H707   0.966       .  S
C683        C841   1.484       .  S
C684        C744   1.478       .  S
C685        C834   1.515       .  S
O686        H722   0.991       .  S
O687        C689   1.289       .  A
O688        C689   1.295       .  A
C689        C827   1.489       .  S
O690       Zr691   2.431       .  S
O690        H719   0.990       .  S
Zr691       O694   2.435       .  S
Zr691       O695   2.430       .  S
Zr691       O696   2.353       .  S
O692        C697   1.304       .  A
O693        H710   0.986       .  S
O693        H725   0.988       .  S
O694        H711   0.989       .  S
O695        H715   0.990       .  S
O695        H724   0.990       .  S
O696        C697   1.260       .  A
C697        C751   1.515       .  S
O698        H717   0.989       .  S
O698        H721   0.991       .  S
O699        H713   0.987       .  S
O699        H720   0.989       .  S
O700        C704   1.291       .  A
O701        C704   1.287       .  A
O702        H712   0.992       .  S
O703        H716   0.989       .  S
C704        C737   1.500       .  S
H714       O1007   0.990       .  S
C727        C954   1.474       .  S
C727        N728   1.370       .  A
C727       N2052   1.362       .  A
N728        C729   1.366       .  A
C729        C978   1.470       .  S
N730       C2051   1.344       .  A
C731        C930   1.458       .  S
C731       N2050   1.344   1_455  A
N732       C2047   1.361   1_455  A
N733       C1067   1.357       .  A
N733       C1311   1.431       .  S
C734        C782   1.489       .  S
C734        C735   1.382       .  A
C735        H738   1.082       .  S
C736       C1067   1.387       .  A
C736       H1069   1.082       .  S
C737       N1063   1.357       .  A
C737       C1066   1.387       .  A
H739       C1066   1.082       .  S
N740        C744   1.354       .  A
N740       C1071   1.348       .  A
N740        C933   1.427       .  S
C741        C776   1.484   1_556  S
C741       N1070   1.348       .  A
C741        C742   1.387       .  A
C742       C1073   1.385       .  A
C742        H745   1.080       .  S
C743       C1072   1.385       .  A
C743        C744   1.382       .  A
C743        H746   1.082       .  S
N747        C751   1.373       .  A
N747       C2398   1.365       .  A
N747        C957   1.445       .  S
C748        C778   1.511   1_556  S
C748       N2397   1.365       .  A
C748        C749   1.388       .  A
C749       C2400   1.398   1_455  A
C749        H752   1.082       .  S
C750       C2399   1.398       .  A
C750        C751   1.386       .  A
C750        H753   1.082       .  S
Zr754       O755   2.435       .  S
Zr754       O756   2.462       .  S
Zr754       O757   2.522       .  S
Zr754       O760   2.471       .  S
Zr754       O762   2.381       .  S
Zr754       O763   2.405       .  S
Zr754       O764   2.396       .  S
Zr754       O765   2.392       .  S
O755        H811   0.987       .  S
O755        H819   0.991       .  S
O756        C776   1.289       .  A
O757        C778   1.300       .  A
O758       Zr768   2.413       .  S
O758        C777   1.283       .  A
O759       Zr767   2.442       .  S
O759        C778   1.287       .  A
O760        C777   1.292       .  A
O761       Zr769   2.399       .  S
O761        C776   1.276       .  A
O762       Zr767   2.400       .  S
O762       Zr769   2.372       .  S
O763       Zr768   2.390       .  S
O763       Zr769   2.346       .  S
O763        H798   0.964       .  S
O764       Zr767   2.407       .  S
O764       Zr784   2.338       .  S
O764        H801   0.962       .  S
O765       Zr768   2.391       .  S
O765       Zr784   2.343       .  S
Zr766       O791   2.416       .  S
Zr766       O785   2.567       .  S
Zr766       O793   2.469       .  S
Zr766       O781   2.491       .  S
Zr766       O772   2.428       .  S
Zr766       O773   2.434       .  S
Zr766       O774   2.349       .  S
Zr766       O775   2.383       .  S
Zr767       O786   2.425       .  S
Zr767       O779   2.437   1_554  S
Zr767       O780   2.469       .  S
Zr767       O773   2.390       .  S
Zr767       O774   2.395       .  S
Zr768       O770   2.436       .  S
Zr768       O792   2.426       .  S
Zr768       O794   2.448       .  S
Zr768       O772   2.346       .  S
Zr768       O775   2.394       .  S
Zr769       O795   2.437       .  S
Zr769       O796   2.418       .  S
Zr769       O771   2.412   1_554  S
Zr769       O772   2.390       .  S
Zr769       O773   2.370       .  S
O770        H807   0.990       .  S
O771        H802   0.991       .  S
O771        H816   0.989       .  S
O773        H799   0.962       .  S
O774       Zr784   2.388       .  S
O775       Zr784   2.377       .  S
O775        H800   0.966       .  S
C777        C844   1.475       .  S
O779       H1145   0.989       .  S
O780        C782   1.290       .  A
O781        C782   1.293       .  A
O783       Zr784   2.432       .  S
O783        H812   0.991       .  S
Zr784       O787   2.434       .  S
Zr784       O788   2.427       .  S
Zr784       O789   2.352       .  S
O785        C790   1.305       .  A
O786        H803   0.988       .  S
O786        H818   0.991       .  S
O787        H804   0.990       .  S
O788        H808   0.989       .  S
O788        H817   0.990       .  S
O789        C790   1.261       .  A
C790        C837   1.516       .  S
O791        H810   0.989       .  S
O791        H814   0.990       .  S
O792        H806   0.988       .  S
O792        H813   0.987       .  S
O793        C797   1.291       .  A
O794        C797   1.288       .  A
O795        H805   0.990       .  S
O796        H809   0.990       .  S
C797        C830   1.499       .  S
H815       O1109   0.989       .  S
C820        C882   1.471       .  S
C820       N1481   1.351       .  A
C820        N825   1.367       .  A
N821       C1480   1.351   1_565  A
N821        C822   1.345       .  A
C822        C906   1.460       .  S
N823       C2144   1.360       .  A
C824        C861   1.477       .  S
C824       N2143   1.360   1_455  A
C824        N825   1.370       .  A
N826        C830   1.359   1_545  A
N826        C885   1.433       .  S
C827        C828   1.382       .  A
C828        H831   1.082       .  S
C829        C830   1.387       .  A
C829        H832   1.082       .  S
N833        C837   1.374   1_655  A
N833       C2154   1.366       .  A
N833        C858   1.445       .  S
C834       N2153   1.366       .  A
C834        C835   1.388       .  A
C835       C2156   1.398       .  A
C835        H838   1.082       .  S
C836       C2155   1.398   1_455  A
C836        C837   1.386       .  A
C836        H839   1.082       .  S
N840        C844   1.353       .  A
N840        C841   1.349       .  A
N840        C909   1.428       .  S
C841        C842   1.389       .  A
C842        C843   1.385       .  A
C842        H845   1.082       .  S
C843        C844   1.381       .  A
C843        H846   1.082       .  S
C847        C848   1.397       .  A
C847        C852   1.404       .  A
C847        H863   1.084       .  S
C848        C849   1.403       .  A
C848        H864   1.084       .  S
C849        C859   1.400       .  A
C849       C2170   1.412       .  A
C850       C2169   1.412       .  A
C850        C856   1.413   1_655  A
C850        C851   1.413       .  A
C851        C853   1.414   1_655  A
C851       C2172   1.411       .  A
C852       C2171   1.411       .  A
C852        C860   1.399       .  A
C853        C862   1.411       .  A
C853        C854   1.406       .  A
C854        C855   1.404       .  A
C854        H865   1.083       .  S
C855        C856   1.406       .  A
C855        H866   1.083       .  S
C856        C857   1.409       .  A
C857        C858   1.408   1_455  A
C857        H867   1.084       .  S
C858       C2179   1.402       .  A
C859       C2178   1.402       .  A
C859        H868   1.084       .  S
C860       C2181   1.405       .  A
C860        H869   1.085       .  S
C861       C2180   1.405   1_455  A
C861        C862   1.407       .  A
C862        H870   1.084       .  S
C871        C872   1.405       .  A
C871        C876   1.407       .  A
C871        H887   1.083       .  S
C872        C873   1.406       .  A
C872        H888   1.083       .  S
C873        C883   1.412       .  A
C874        C880   1.409       .  A
C874        C875   1.410       .  A
C875        C877   1.413   1_545  A
C876        C884   1.408       .  A
C877        C886   1.397       .  A
C877        C878   1.402       .  A
C878        C879   1.395       .  A
C878        H889   1.084       .  S
C879        C880   1.403   1_565  A
C879        H890   1.084       .  S
C880        C881   1.393       .  A
C881        H891   1.085   1_545  S
C882        C883   1.406       .  A
C883        H892   1.084       .  S
C884        H893   1.084       .  S
C885        C886   1.399   1_545  A
C886        H894   1.084       .  S
C895        C896   1.396       .  A
C895        C900   1.402       .  A
C895        H911   1.084       .  S
C896        C897   1.403       .  A
C896        H912   1.084       .  S
C897        C907   1.397       .  A
C897        C898   1.412       .  A
C898        C904   1.413       .  A
C898        C899   1.406       .  A
C899        C901   1.414       .  A
C899        C900   1.413       .  A
C900        C908   1.397       .  A
C901        C910   1.399       .  A
C901        C902   1.403       .  A
C902        C903   1.398       .  A
C902        H913   1.084       .  S
C903        C904   1.403       .  A
C903        H914   1.084       .  S
C904        C905   1.399       .  A
C905        C906   1.402       .  A
C905        H915   1.085       .  S
C906        C907   1.402       .  A
C907        H916   1.085       .  S
C908        C909   1.399       .  A
C908        H917   1.084       .  S
C909        C910   1.400       .  A
C910        H918   1.084       .  S
C919        C920   1.399       .  A
C919        C924   1.404       .  A
C919        H935   1.084       .  S
C920        C921   1.404       .  A
C920        H936   1.084       .  S
C921        C931   1.403       .  A
C921        C922   1.414       .  A
C922        C928   1.410       .  A
C922        C923   1.405       .  A
C923        C925   1.414       .  A
C923        C924   1.413       .  A
C924        C932   1.401       .  A
C925        C934   1.394       .  A
C925        C926   1.400       .  A
C926        C927   1.393       .  A
C926        H937   1.084       .  S
C927        C928   1.402       .  A
C927        H938   1.084       .  S
C928        C929   1.391       .  A
C929        C930   1.401       .  A
C929        H939   1.085       .  S
C930        C931   1.402       .  A
C931        H940   1.084       .  S
C932        C933   1.402       .  A
C932        H941   1.084       .  S
C933        C934   1.396       .  A
C934        H942   1.084       .  S
C943        C944   1.404       .  A
C943        C948   1.406       .  A
C943       H1289   1.083       .  S
C944        C945   1.406       .  A
C944       H1290   1.084       .  S
C945        C955   1.410       .  A
C945       C2266   1.414       .  A
C946       C2265   1.414       .  A
C946        C952   1.411       .  A
C946        C947   1.412       .  A
C947        C949   1.412       .  A
C947       C2268   1.414       .  A
C948       C2267   1.414       .  A
C948        C956   1.408       .  A
C949        C958   1.398       .  A
C949        C950   1.402       .  A
C950        C951   1.396       .  A
C950        H961   1.084       .  S
C951        C952   1.403       .  A
C951        H962   1.084       .  S
C952        C953   1.398       .  A
C953        C954   1.404       .  A
C953        H963   1.085       .  S
C954       C2275   1.406       .  A
C955       C2274   1.406       .  A
C955        H964   1.084       .  S
C956       C2277   1.408   1_655  A
C956       H1295   1.084       .  S
C957       C2276   1.408       .  A
C957        C958   1.401       .  A
C958        H966   1.084       .  S
H959       C1273   1.083       .  S
H960       C1274   1.084       .  S
H965       C1286   1.084       .  S
C967        C968   1.404       .  A
C967        C972   1.408       .  A
C967        H983   1.083       .  S
C968        C969   1.406       .  A
C968        H984   1.083       .  S
C969        C979   1.410       .  A
C969        C970   1.414       .  A
C970        C976   1.409       .  A
C970        C971   1.409       .  A
C971       C1303   1.413       .  A
C971        C972   1.412       .  A
C972        C980   1.408       .  A
C973       C1301   1.413   1_554  A
C973        C982   1.395       .  A
C973        C974   1.402       .  A
C974        H985   1.084       .  S
C975        H986   1.084       .  S
C977        C978   1.405       .  A
C977       H1317   1.085   1_565  S
C979        H988   1.084       .  S
C980        C981   1.405       .  A
C980        H989   1.084       .  S
C981       N1063   1.431       .  S
C981       C1312   1.398       .  A
C982       C1311   1.398   1_554  A
C982        H990   1.084       .  S
H987       C1307   1.085   1_545  S
Zr991       O992   2.437       .  S
Zr991       O993   2.463       .  S
Zr991       O994   2.532       .  S
Zr991       O997   2.483       .  S
Zr991       O999   2.384       .  S
Zr991      O1000   2.407       .  S
Zr991      O1001   2.394       .  S
Zr991      O1002   2.395       .  S
O992       H1048   0.989       .  S
O992       H1056   0.990       .  S
O993       C1013   1.289       .  A
O994       C1015   1.303       .  A
O995      Zr1005   2.405       .  S
O995       C1014   1.281       .  A
O996      Zr1004   2.446       .  S
O996       C1015   1.288       .  A
O997       C1014   1.294       .  A
O998      Zr1006   2.404       .  S
O998       C1013   1.276       .  A
O999      Zr1004   2.404       .  S
O999      Zr1006   2.373       .  S
O1000     Zr1005   2.392       .  S
O1000     Zr1006   2.345       .  S
O1000      H1035   0.966       .  S
O1001     Zr1004   2.402       .  S
O1001     Zr1021   2.342       .  S
O1001      H1038   0.958       .  S
O1002     Zr1005   2.393       .  S
O1002     Zr1021   2.345       .  S
Zr1003     O1028   2.426       .  S
Zr1003     O1022   2.563       .  S
Zr1003     O1030   2.470       .  S
Zr1003     O1018   2.497       .  S
Zr1003     O1010   2.428       .  S
Zr1003     O1011   2.354       .  S
Zr1003     O1012   2.383       .  S
Zr1003     O1009   2.339       .  S
Zr1004     O1023   2.419       .  S
Zr1004     O1016   2.435       .  S
Zr1004     O1017   2.459       .  S
Zr1004     O1010   2.393       .  S
Zr1004     O1011   2.393       .  S
Zr1005     O1007   2.437   1_556  S
Zr1005     O1029   2.428       .  S
Zr1005     O1031   2.446       .  S
Zr1005     O1012   2.391       .  S
Zr1005     O1009   2.254       .  S
Zr1006     O1032   2.442       .  S
Zr1006     O1033   2.419       .  S
Zr1006     O1008   2.413       .  S
Zr1006     O1010   2.364       .  S
Zr1006     O1009   2.309       .  S
O1008      H1039   0.989       .  S
O1008      H1053   0.990       .  S
O1010      H1036   0.961       .  S
O1011     Zr1021   2.396       .  S
O1012     Zr1021   2.383       .  S
O1012      H1037   0.966       .  S
C1013      C1171   1.484       .  S
C1014      C1074   1.478       .  S
C1015      C1164   1.515       .  S
O1016      H1052   0.991       .  S
O1017      C1019   1.289       .  A
O1018      C1019   1.295       .  A
C1019      C1157   1.489       .  S
O1020     Zr1021   2.431       .  S
O1020      H1049   0.990       .  S
Zr1021     O1024   2.435       .  S
Zr1021     O1025   2.430       .  S
Zr1021     O1026   2.353       .  S
O1022      C1027   1.304       .  A
O1023      H1040   0.986       .  S
O1023      H1055   0.988       .  S
O1024      H1041   0.989       .  S
O1025      H1045   0.990       .  S
O1025      H1054   0.990       .  S
O1026      C1027   1.260       .  A
C1027      C1081   1.515       .  S
O1028      H1047   0.989       .  S
O1028      H1051   0.991       .  S
O1029      H1043   0.987       .  S
O1029      H1050   0.989       .  S
O1030      C1034   1.291       .  A
O1031      C1034   1.287       .  A
O1032      H1042   0.992       .  S
O1033      H1046   0.989       .  S
C1034      C1067   1.500       .  S
C1057      C1284   1.474       .  S
C1057      N1058   1.370       .  A
C1057      N2382   1.361       .  A
N1058      C1059   1.366       .  A
C1059      C1308   1.470       .  S
N1060      C2381   1.344       .  A
C1061      C1260   1.458       .  S
C1061      N2380   1.344   1_455  A
N1062      C2377   1.361   1_455  A
C1064      C1112   1.489       .  S
C1064      C1065   1.382       .  A
C1065      H1068   1.082       .  S
N1070      C1074   1.354       .  A
N1070      C1263   1.427       .  S
C1071      C1106   1.484       .  S
C1071      C1072   1.387       .  A
C1072      H1075   1.080       .  S
C1073      C1074   1.382       .  A
C1073      H1076   1.082       .  S
N1077      C1081   1.373       .  A
N1077      C2068   1.365       .  A
N1077      C1287   1.445       .  S
C1078      C1108   1.511       .  S
C1078      N2067   1.365       .  A
C1078      C1079   1.388       .  A
C1079      C2070   1.398   1_455  A
C1079      H1082   1.082       .  S
C1080      C2069   1.398       .  A
C1080      C1081   1.386       .  A
C1080      H1083   1.082       .  S
Zr1084     O1085   2.435       .  S
Zr1084     O1086   2.462       .  S
Zr1084     O1087   2.522       .  S
Zr1084     O1090   2.471       .  S
Zr1084     O1092   2.381       .  S
Zr1084     O1093   2.405       .  S
Zr1084     O1094   2.396       .  S
Zr1084     O1095   2.392       .  S
O1085      H1141   0.987       .  S
O1085      H1149   0.991       .  S
O1086      C1106   1.289       .  A
O1087      C1108   1.300       .  A
O1088     Zr1098   2.413       .  S
O1088      C1107   1.283       .  A
O1089     Zr1097   2.442       .  S
O1089      C1108   1.287       .  A
O1090      C1107   1.292       .  A
O1091     Zr1099   2.399       .  S
O1091      C1106   1.276       .  A
O1092     Zr1097   2.400       .  S
O1092     Zr1099   2.372       .  S
O1093     Zr1098   2.390       .  S
O1093     Zr1099   2.346       .  S
O1093      H1128   0.964       .  S
O1094     Zr1097   2.407       .  S
O1094     Zr1114   2.338       .  S
O1094      H1131   0.962       .  S
O1095     Zr1098   2.391       .  S
O1095     Zr1114   2.343       .  S
Zr1096     O1121   2.417       .  S
Zr1096     O1115   2.567       .  S
Zr1096     O1123   2.469       .  S
Zr1096     O1111   2.491       .  S
Zr1096     O1102   2.428       .  S
Zr1096     O1103   2.434       .  S
Zr1096     O1104   2.349       .  S
Zr1096     O1105   2.383       .  S
Zr1097     O1116   2.425       .  S
Zr1097     O1109   2.437       .  S
Zr1097     O1110   2.469       .  S
Zr1097     O1103   2.390       .  S
Zr1097     O1104   2.395       .  S
Zr1098     O1100   2.436       .  S
Zr1098     O1122   2.426       .  S
Zr1098     O1124   2.448       .  S
Zr1098     O1102   2.346       .  S
Zr1098     O1105   2.394       .  S
Zr1099     O1125   2.437       .  S
Zr1099     O1126   2.418       .  S
Zr1099     O1101   2.412       .  S
Zr1099     O1102   2.390       .  S
Zr1099     O1103   2.370       .  S
O1100      H1137   0.990       .  S
O1101      H1132   0.991       .  S
O1101      H1146   0.989       .  S
O1103      H1129   0.962       .  S
O1104     Zr1114   2.388       .  S
O1105     Zr1114   2.377       .  S
O1105      H1130   0.966       .  S
C1107      C1174   1.475       .  S
O1110      C1112   1.290       .  A
O1111      C1112   1.293       .  A
O1113     Zr1114   2.432       .  S
O1113      H1142   0.991       .  S
Zr1114     O1117   2.434       .  S
Zr1114     O1118   2.427       .  S
Zr1114     O1119   2.352       .  S
O1115      C1120   1.305       .  A
O1116      H1133   0.988       .  S
O1116      H1148   0.991       .  S
O1117      H1134   0.990       .  S
O1118      H1138   0.989       .  S
O1118      H1147   0.990       .  S
O1119      C1120   1.261       .  A
C1120      C1167   1.516       .  S
O1121      H1140   0.989       .  S
O1121      H1144   0.990       .  S
O1122      H1136   0.988       .  S
O1122      H1143   0.987       .  S
O1123      C1127   1.291       .  A
O1124      C1127   1.288       .  A
O1125      H1135   0.990       .  S
O1126      H1139   0.990       .  S
C1127      C1160   1.499       .  S
C1150      C1212   1.471       .  S
C1150      N1811   1.351       .  A
C1150      N1155   1.367       .  A
N1151      C1810   1.351   1_565  A
N1151      C1152   1.345       .  A
C1152      C1236   1.460       .  S
N1153      C2474   1.360       .  A
C1154      C1191   1.477       .  S
C1154      N2473   1.360   1_455  A
C1154      N1155   1.370       .  A
N1156      C1160   1.359   1_545  A
N1156      C1215   1.433       .  S
C1157      C1158   1.382       .  A
C1158      H1161   1.082       .  S
C1159      C1160   1.387       .  A
C1159      H1162   1.082       .  S
N1163      C1167   1.374   1_655  A
N1163      C2484   1.366       .  A
N1163      C1188   1.445       .  S
C1164      N2483   1.366       .  A
C1164      C1165   1.388       .  A
C1165      C2486   1.398       .  A
C1165      H1168   1.082       .  S
C1166      C2485   1.398   1_455  A
C1166      C1167   1.386       .  A
C1166      H1169   1.082       .  S
N1170      C1174   1.353       .  A
N1170      C1171   1.349       .  A
N1170      C1239   1.428       .  S
C1171      C1172   1.389       .  A
C1172      C1173   1.385       .  A
C1172      H1175   1.082       .  S
C1173      C1174   1.381       .  A
C1173      H1176   1.082       .  S
C1177      C1178   1.397       .  A
C1177      C1182   1.404       .  A
C1177      H1193   1.084       .  S
C1178      C1179   1.403       .  A
C1178      H1194   1.084       .  S
C1179      C1189   1.400       .  A
C1179      C2500   1.412       .  A
C1180      C2499   1.412       .  A
C1180      C1186   1.413   1_655  A
C1180      C1181   1.413       .  A
C1181      C1183   1.414   1_655  A
C1181      C2502   1.411       .  A
C1182      C2501   1.411       .  A
C1182      C1190   1.399       .  A
C1183      C1192   1.411       .  A
C1183      C1184   1.406       .  A
C1184      C1185   1.404       .  A
C1184      H1195   1.083       .  S
C1185      C1186   1.406       .  A
C1185      H1196   1.083       .  S
C1186      C1187   1.409       .  A
C1187      C1188   1.408   1_455  A
C1187      H1197   1.084       .  S
C1188      C2509   1.402       .  A
C1189      C2508   1.402       .  A
C1189      H1198   1.084       .  S
C1190      C2511   1.405       .  A
C1190      H1199   1.085       .  S
C1191      C2510   1.405   1_455  A
C1191      C1192   1.407       .  A
C1192      H1200   1.084       .  S
C1201      C1202   1.405       .  A
C1201      C1206   1.407       .  A
C1201      H1217   1.083       .  S
C1202      C1203   1.406       .  A
C1202      H1218   1.083       .  S
C1203      C1213   1.412       .  A
C1204      C1210   1.409       .  A
C1204      C1205   1.410       .  A
C1205      C1207   1.413   1_545  A
C1206      C1214   1.408       .  A
C1207      C1216   1.397       .  A
C1207      C1208   1.402       .  A
C1208      C1209   1.395       .  A
C1208      H1219   1.084       .  S
C1209      C1210   1.403   1_565  A
C1209      H1220   1.084       .  S
C1210      C1211   1.393       .  A
C1211      H1221   1.085   1_545  S
C1212      C1213   1.406       .  A
C1213      H1222   1.084       .  S
C1214      H1223   1.084       .  S
C1215      C1216   1.399   1_545  A
C1216      H1224   1.084       .  S
C1225      C1226   1.396       .  A
C1225      C1230   1.402       .  A
C1225      H1241   1.084       .  S
C1226      C1227   1.403       .  A
C1226      H1242   1.084       .  S
C1227      C1237   1.397       .  A
C1227      C1228   1.412       .  A
C1228      C1234   1.413       .  A
C1228      C1229   1.406       .  A
C1229      C1231   1.414       .  A
C1229      C1230   1.413       .  A
C1230      C1238   1.397       .  A
C1231      C1240   1.399       .  A
C1231      C1232   1.403       .  A
C1232      C1233   1.398       .  A
C1232      H1243   1.084       .  S
C1233      C1234   1.403       .  A
C1233      H1244   1.084       .  S
C1234      C1235   1.399       .  A
C1235      C1236   1.402       .  A
C1235      H1245   1.085       .  S
C1236      C1237   1.402       .  A
C1237      H1246   1.085       .  S
C1238      C1239   1.399       .  A
C1238      H1247   1.084       .  S
C1239      C1240   1.400       .  A
C1240      H1248   1.084       .  S
C1249      C1250   1.399       .  A
C1249      C1254   1.404       .  A
C1249      H1265   1.084       .  S
C1250      C1251   1.404       .  A
C1250      H1266   1.084       .  S
C1251      C1261   1.403       .  A
C1251      C1252   1.414   1_554  A
C1252      C1258   1.410       .  A
C1252      C1253   1.405       .  A
C1253      C1255   1.414       .  A
C1253      C1254   1.413   1_556  A
C1254      C1262   1.400       .  A
C1255      C1264   1.394       .  A
C1255      C1256   1.400       .  A
C1256      C1257   1.393       .  A
C1256      H1267   1.084       .  S
C1257      C1258   1.402       .  A
C1257      H1268   1.084       .  S
C1258      C1259   1.391       .  A
C1259      C1260   1.401       .  A
C1259      H1269   1.085       .  S
C1260      C1261   1.402   1_556  A
C1261      H1270   1.084       .  S
C1262      C1263   1.402   1_554  A
C1262      H1271   1.084       .  S
C1263      C1264   1.396       .  A
C1264      H1272   1.084       .  S
C1273      C1274   1.404       .  A
C1273      C1278   1.406       .  A
C1274      C1275   1.406       .  A
C1275      C1285   1.410       .  A
C1275      C2596   1.414   1_554  A
C1276      C2595   1.414   1_556  A
C1276      C1282   1.411       .  A
C1276      C1277   1.412       .  A
C1277      C1279   1.412       .  A
C1277      C2598   1.414   1_556  A
C1278      C2597   1.414   1_554  A
C1278      C1286   1.408       .  A
C1279      C1288   1.398       .  A
C1279      C1280   1.402       .  A
C1280      C1281   1.396       .  A
C1280      H1291   1.084       .  S
C1281      C1282   1.403       .  A
C1281      H1292   1.084       .  S
C1282      C1283   1.398       .  A
C1283      C1284   1.404       .  A
C1283      H1293   1.085       .  S
C1284      C2605   1.406   1_556  A
C1285      C2604   1.406   1_554  A
C1285      H1294   1.084       .  S
C1286      C2607   1.408   1_654  A
C1287      C2606   1.408   1_556  A
C1287      C1288   1.401       .  A
C1288      H1296   1.084       .  S
C1297      C1298   1.404       .  A
C1297      C1302   1.408       .  A
C1297      H1313   1.083       .  S
C1298      C1299   1.406       .  A
C1298      H1314   1.083       .  S
C1299      C1309   1.410       .  A
C1299      C1300   1.414       .  A
C1300      C1306   1.409   1_556  A
C1300      C1301   1.409       .  A
C1301      C1302   1.412       .  A
C1302      C1310   1.408       .  A
C1303      C1312   1.395       .  A
C1303      C1304   1.402       .  A
C1304      H1315   1.084       .  S
C1305      H1316   1.084       .  S
C1307      C1308   1.405   1_554  A
C1309      H1318   1.084       .  S
C1310      C1311   1.405       .  A
C1310      H1319   1.084       .  S
C1312      H1320   1.084       .  S
Zr1321     O1322   2.437       .  S
Zr1321     O1323   2.463       .  S
Zr1321     O1324   2.532       .  S
Zr1321     O1327   2.483       .  S
Zr1321     O1329   2.384       .  S
Zr1321     O1330   2.407       .  S
Zr1321     O1331   2.394       .  S
Zr1321     O1332   2.395       .  S
O1322      H1378   0.989       .  S
O1322      H1386   0.990       .  S
O1323      C1343   1.289       .  A
O1324      C1345   1.303       .  A
O1325     Zr1335   2.406       .  S
O1325      C1344   1.281       .  A
O1326     Zr1334   2.446       .  S
O1326      C1345   1.288       .  A
O1327      C1344   1.294       .  A
O1328     Zr1336   2.404       .  S
O1328      C1343   1.276       .  A
O1329     Zr1334   2.404       .  S
O1329     Zr1336   2.373       .  S
O1330     Zr1335   2.392       .  S
O1330     Zr1336   2.345       .  S
O1330      H1365   0.966       .  S
O1331     Zr1334   2.402       .  S
O1331     Zr1351   2.342       .  S
O1331      H1368   0.958       .  S
O1332     Zr1335   2.393       .  S
O1332     Zr1351   2.345       .  S
Zr1333     O1358   2.426       .  S
Zr1333     O1352   2.563       .  S
Zr1333     O1360   2.470       .  S
Zr1333     O1348   2.497       .  S
Zr1333     O1340   2.428       .  S
Zr1333     O1341   2.354       .  S
Zr1333     O1342   2.383       .  S
Zr1333     O1339   2.339       .  S
Zr1334     O1353   2.419       .  S
Zr1334     O1346   2.435       .  S
Zr1334     O1347   2.459       .  S
Zr1334     O1340   2.393       .  S
Zr1334     O1341   2.393       .  S
Zr1335     O1337   2.437       .  S
Zr1335     O1359   2.428       .  S
Zr1335     O1361   2.446       .  S
Zr1335     O1342   2.391       .  S
Zr1335     O1339   2.255       .  S
Zr1336     O1362   2.442       .  S
Zr1336     O1363   2.419       .  S
Zr1336     O1338   2.413       .  S
Zr1336     O1340   2.364       .  S
Zr1336     O1339   2.309       .  S
O1337      H1704   0.990       .  S
O1338      H1369   0.989       .  S
O1338      H1383   0.990       .  S
O1340      H1366   0.961       .  S
O1341     Zr1351   2.396       .  S
O1342     Zr1351   2.383       .  S
O1342      H1367   0.966       .  S
C1343      C1501   1.484       .  S
C1344      C1404   1.478       .  S
C1345      C1494   1.515       .  S
O1346      H1382   0.991       .  S
O1347      C1349   1.289       .  A
O1348      C1349   1.295       .  A
C1349      C1487   1.489       .  S
O1350     Zr1351   2.431       .  S
O1350      H1379   0.990       .  S
Zr1351     O1354   2.435       .  S
Zr1351     O1355   2.430       .  S
Zr1351     O1356   2.353       .  S
O1352      C1357   1.304       .  A
O1353      H1370   0.986       .  S
O1353      H1385   0.988       .  S
O1354      H1371   0.989       .  S
O1355      H1375   0.990       .  S
O1355      H1384   0.990       .  S
O1356      C1357   1.260       .  A
C1357      C1411   1.515       .  S
O1358      H1377   0.989       .  S
O1358      H1381   0.992       .  S
O1359      H1373   0.987       .  S
O1359      H1380   0.989       .  S
O1360      C1364   1.291       .  A
O1361      C1364   1.287       .  A
O1362      H1372   0.992       .  S
O1363      H1376   0.989       .  S
C1364      C1397   1.500       .  S
H1374      O1667   0.990       .  S
C1387      C1614   1.475       .  S
C1387      N1388   1.370       .  A
N1388      C1389   1.366       .  A
C1389      C1638   1.470       .  S
C1389      N2050   1.348       .  A
N1390      C2049   1.348       .  A
C1391      C1590   1.458   1_565  S
C1391      N2052   1.351       .  A
N1392      C2051   1.351       .  A
N1393      C1727   1.357   1_565  A
N1393      C2054   1.363   1_556  A
N1393      C1971   1.431       .  S
C1394      C1442   1.490       .  S
C1394      N2053   1.363   1_554  A
C1394      C1395   1.382       .  A
C1395      C2056   1.386   1_554  A
C1395      H1398   1.082       .  S
C1396      C2055   1.386   1_546  A
C1396      C1727   1.387       .  A
C1396      H1729   1.082       .  S
C1397      N1723   1.357   1_545  A
C1397      C1726   1.387       .  A
H1399      C1726   1.082       .  S
N1400      C1404   1.354       .  A
N1400      C1731   1.348       .  A
N1400      C1593   1.427       .  S
C1401      C1436   1.484   1_556  S
C1401      N1730   1.348       .  A
C1401      C1402   1.387       .  A
C1402      C1733   1.385       .  A
C1402      H1405   1.080       .  S
C1403      C1732   1.385       .  A
C1403      C1404   1.382       .  A
C1403      H1406   1.082       .  S
N1407      C1411   1.373   1_455  A
N1407      C1617   1.445       .  S
C1408      C1438   1.511   1_556  S
C1408      C1409   1.388       .  A
C1409      H1412   1.082       .  S
C1410      C1411   1.386       .  A
C1410      H1413   1.082       .  S
Zr1414     O1415   2.435       .  S
Zr1414     O1416   2.462       .  S
Zr1414     O1417   2.522       .  S
Zr1414     O1420   2.471       .  S
Zr1414     O1422   2.381       .  S
Zr1414     O1423   2.405       .  S
Zr1414     O1424   2.396       .  S
Zr1414     O1425   2.392       .  S
O1415      H1471   0.988       .  S
O1415      H1479   0.991       .  S
O1416      C1436   1.289       .  A
O1417      C1438   1.300       .  A
O1418     Zr1428   2.413       .  S
O1418      C1437   1.283       .  A
O1419     Zr1427   2.442       .  S
O1419      C1438   1.287       .  A
O1420      C1437   1.292       .  A
O1421     Zr1429   2.399       .  S
O1421      C1436   1.276       .  A
O1422     Zr1427   2.400       .  S
O1422     Zr1429   2.372       .  S
O1423     Zr1428   2.390       .  S
O1423     Zr1429   2.346       .  S
O1423      H1458   0.964       .  S
O1424     Zr1427   2.407       .  S
O1424     Zr1444   2.338       .  S
O1424      H1461   0.962       .  S
O1425     Zr1428   2.391       .  S
O1425     Zr1444   2.343       .  S
Zr1426     O1451   2.416       .  S
Zr1426     O1445   2.567       .  S
Zr1426     O1453   2.470       .  S
Zr1426     O1441   2.491       .  S
Zr1426     O1432   2.428       .  S
Zr1426     O1433   2.434       .  S
Zr1426     O1434   2.349       .  S
Zr1426     O1435   2.383       .  S
Zr1427     O1446   2.425       .  S
Zr1427     O1439   2.437   1_554  S
Zr1427     O1440   2.469       .  S
Zr1427     O1433   2.390       .  S
Zr1427     O1434   2.395       .  S
Zr1428     O1430   2.436       .  S
Zr1428     O1452   2.426       .  S
Zr1428     O1454   2.448       .  S
Zr1428     O1432   2.346       .  S
Zr1428     O1435   2.394       .  S
Zr1429     O1455   2.437       .  S
Zr1429     O1456   2.418       .  S
Zr1429     O1431   2.412   1_554  S
Zr1429     O1432   2.390       .  S
Zr1429     O1433   2.370       .  S
O1430      H1467   0.990       .  S
O1431      H1462   0.991       .  S
O1431      H1476   0.989       .  S
O1433      H1459   0.962       .  S
O1434     Zr1444   2.388       .  S
O1435     Zr1444   2.377       .  S
O1435      H1460   0.966       .  S
C1437      C1504   1.475       .  S
O1439      H1805   0.989       .  S
O1440      C1442   1.290       .  A
O1441      C1442   1.293       .  A
O1443     Zr1444   2.432       .  S
O1443      H1472   0.991       .  S
Zr1444     O1447   2.434       .  S
Zr1444     O1448   2.427       .  S
Zr1444     O1449   2.352       .  S
O1445      C1450   1.305       .  A
O1446      H1463   0.988       .  S
O1446      H1478   0.991       .  S
O1447      H1464   0.990       .  S
O1448      H1468   0.989       .  S
O1448      H1477   0.990       .  S
O1449      C1450   1.261       .  A
C1450      C1497   1.516       .  S
O1451      H1470   0.989       .  S
O1451      H1474   0.990       .  S
O1452      H1466   0.988       .  S
O1452      H1473   0.987       .  S
O1453      C1457   1.291       .  A
O1454      C1457   1.288       .  A
O1455      H1465   0.990       .  S
O1456      H1469   0.990       .  S
C1457      C1490   1.499       .  S
H1475      O1769   0.989       .  S
C1480      C1542   1.471       .  S
C1480      N1485   1.367       .  A
N1481      C1482   1.345   1_455  A
C1482      C1566   1.460       .  S
C1482      N2143   1.352       .  A
N1483      C2142   1.352   1_545  A
C1484      C1521   1.477       .  S
C1484      N1485   1.370       .  A
N1486      C1490   1.359       .  A
N1486      C2147   1.363       .  A
N1486      C1545   1.433       .  S
C1487      N2146   1.363       .  A
C1487      C1488   1.382       .  A
C1488      C2149   1.385   1_545  A
C1488      H1491   1.082       .  S
C1489      C2148   1.385       .  A
C1489      C1490   1.387       .  A
C1489      H1492   1.082       .  S
N1493      C1497   1.374       .  A
N1493      C1518   1.445       .  S
C1494      C1495   1.388       .  A
C1495      H1498   1.082       .  S
C1496      C1497   1.386       .  A
C1496      H1499   1.082       .  S
N1500      C1504   1.353       .  A
N1500      C1501   1.349       .  A
N1500      C1569   1.428       .  S
C1501      C1502   1.389       .  A
C1502      C1503   1.385       .  A
C1502      H1505   1.082       .  S
C1503      C1504   1.381       .  A
C1503      H1506   1.082       .  S
C1507      C1508   1.397       .  A
C1507      C1512   1.404       .  A
C1507      H1523   1.084       .  S
C1508      C1509   1.403       .  A
C1508      H1524   1.084       .  S
C1509      C1519   1.400       .  A
C1510      C1516   1.413       .  A
C1510      C1511   1.413       .  A
C1511      C1513   1.414       .  A
C1512      C1520   1.399       .  A
C1513      C1522   1.411       .  A
C1513      C1514   1.406       .  A
C1514      C1515   1.404       .  A
C1514      H1525   1.083       .  S
C1515      C1516   1.406       .  A
C1515      H1526   1.083       .  S
C1516      C1517   1.409       .  A
C1517      C1518   1.408       .  A
C1517      H1527   1.084       .  S
C1519      H1528   1.084       .  S
C1520      H1529   1.085       .  S
C1521      C1522   1.407       .  A
C1522      H1530   1.084       .  S
C1531      C1532   1.405       .  A
C1531      C1536   1.407       .  A
C1531      H1547   1.083       .  S
C1532      C1533   1.406       .  A
C1532      H1548   1.083       .  S
C1533      C1543   1.412       .  A
C1533      C2194   1.415       .  A
C1534      C2193   1.415       .  A
C1534      C1540   1.409       .  A
C1534      C1535   1.410       .  A
C1535      C1537   1.413       .  A
C1535      C2196   1.413       .  A
C1536      C2195   1.413       .  A
C1536      C1544   1.408       .  A
C1537      C1546   1.397       .  A
C1537      C1538   1.402       .  A
C1538      C1539   1.395       .  A
C1538      H1549   1.084       .  S
C1539      C1540   1.403       .  A
C1539      H1550   1.084       .  S
C1540      C1541   1.393       .  A
C1541      C2202   1.404       .  A
C1541      H1551   1.085       .  S
C1542      C2201   1.404       .  A
C1542      C1543   1.406       .  A
C1543      H1552   1.084       .  S
C1544      C2205   1.405       .  A
C1544      H1553   1.084       .  S
C1545      C2204   1.405       .  A
C1545      C1546   1.399       .  A
C1546      H1554   1.084       .  S
C1555      C1556   1.396       .  A
C1555      C1560   1.402       .  A
C1555      H1571   1.084       .  S
C1556      C1557   1.403       .  A
C1556      H1572   1.084       .  S
C1557      C1567   1.397       .  A
C1557      C1558   1.412       .  A
C1558      C1564   1.413       .  A
C1558      C1559   1.406       .  A
C1559      C1561   1.414       .  A
C1559      C1560   1.413       .  A
C1560      C1568   1.397       .  A
C1561      C1570   1.399       .  A
C1561      C1562   1.403       .  A
C1562      C1563   1.398       .  A
C1562      H1573   1.084       .  S
C1563      C1564   1.403       .  A
C1563      H1574   1.084       .  S
C1564      C1565   1.399       .  A
C1565      C1566   1.402       .  A
C1565      H1575   1.085       .  S
C1566      C1567   1.402       .  A
C1567      H1576   1.085       .  S
C1568      C1569   1.399       .  A
C1568      H1577   1.084       .  S
C1569      C1570   1.400       .  A
C1570      H1578   1.084       .  S
C1579      C1580   1.399       .  A
C1579      C1584   1.404       .  A
C1579      H1595   1.084       .  S
C1580      C1581   1.404       .  A
C1580      H1596   1.084       .  S
C1581      C1591   1.403       .  A
C1581      C1582   1.414       .  A
C1582      C1588   1.410       .  A
C1582      C1583   1.405       .  A
C1583      C1585   1.414       .  A
C1583      C1584   1.413       .  A
C1584      C1592   1.401       .  A
C1585      C1594   1.394       .  A
C1585      C1586   1.400       .  A
C1586      C1587   1.393       .  A
C1586      H1597   1.084       .  S
C1587      C1588   1.402       .  A
C1587      H1598   1.084       .  S
C1588      C1589   1.391       .  A
C1589      C1590   1.401       .  A
C1589      H1599   1.085       .  S
C1590      C1591   1.402       .  A
C1591      H1600   1.084       .  S
C1592      C1593   1.402       .  A
C1592      H1601   1.084       .  S
C1593      C1594   1.396       .  A
C1594      H1602   1.084       .  S
C1603      C1604   1.404       .  A
C1603      C1608   1.406       .  A
C1603      H1949   1.083       .  S
C1604      C1605   1.406       .  A
C1604      H1950   1.084       .  S
C1605      C1615   1.410       .  A
C1606      C1612   1.411   1_655  A
C1606      C1607   1.412       .  A
C1607      C1609   1.412   1_655  A
C1608      C1616   1.408       .  A
C1609      C1618   1.398       .  A
C1609      C1610   1.402       .  A
C1610      C1611   1.396       .  A
C1610      H1621   1.084       .  S
C1611      C1612   1.403       .  A
C1611      H1622   1.084       .  S
C1612      C1613   1.398       .  A
C1613      C1614   1.404   1_455  A
C1613      H1623   1.085       .  S
C1615      H1624   1.084       .  S
C1616      H1955   1.084       .  S
C1617      C1618   1.401       .  A
C1618      H1626   1.084       .  S
H1619      C1933   1.083       .  S
H1620      C1934   1.084       .  S
H1625      C1946   1.084       .  S
C1627      C1628   1.404       .  A
C1627      C1632   1.408       .  A
C1627      H1643   1.083       .  S
C1628      C1629   1.406       .  A
C1628      H1644   1.083       .  S
C1629      C1639   1.410       .  A
C1629      C1630   1.414       .  A
C1630      C1636   1.409       .  A
C1630      C1631   1.409       .  A
C1631      C1963   1.413   1_565  A
C1631      C1632   1.412       .  A
C1632      C1640   1.408       .  A
C1633      C1961   1.413   1_544  A
C1633      C1642   1.395       .  A
C1633      C1634   1.402       .  A
C1634      C2295   1.395       .  A
C1634      H1645   1.084       .  S
C1635      C2294   1.395       .  A
C1635      C2626   1.403       .  A
C1635      H1646   1.084       .  S
C1636      C2625   1.403   1_565  A
C1636      C2297   1.393       .  A
C1637      C2296   1.393       .  A
C1637      C1638   1.405       .  A
C1637      H1977   1.085       .  S
C1638      C2299   1.406       .  A
C1639      C2298   1.406       .  A
C1639      H1648   1.084       .  S
C1640      C1641   1.405       .  A
C1640      H1649   1.084       .  S
C1641      N1723   1.431       .  S
C1641      C1972   1.398   1_565  A
C1642      C1971   1.398   1_544  A
C1642      H1650   1.084       .  S
H1647      C1967   1.085       .  S
Zr1651     O1652   2.437       .  S
Zr1651     O1653   2.463       .  S
Zr1651     O1654   2.532       .  S
Zr1651     O1657   2.483       .  S
Zr1651     O1659   2.384       .  S
Zr1651     O1660   2.407       .  S
Zr1651     O1661   2.394       .  S
Zr1651     O1662   2.395       .  S
O1652      H1708   0.989       .  S
O1652      H1716   0.990       .  S
O1653      C1673   1.289       .  A
O1654      C1675   1.303       .  A
O1655     Zr1665   2.405       .  S
O1655      C1674   1.281       .  A
O1656     Zr1664   2.446       .  S
O1656      C1675   1.288       .  A
O1657      C1674   1.294       .  A
O1658     Zr1666   2.404       .  S
O1658      C1673   1.276       .  A
O1659     Zr1664   2.404       .  S
O1659     Zr1666   2.373       .  S
O1660     Zr1665   2.392       .  S
O1660     Zr1666   2.345       .  S
O1660      H1695   0.966       .  S
O1661     Zr1664   2.402       .  S
O1661     Zr1681   2.342       .  S
O1661      H1698   0.958       .  S
O1662     Zr1665   2.393       .  S
O1662     Zr1681   2.345       .  S
Zr1663     O1688   2.426       .  S
Zr1663     O1682   2.563       .  S
Zr1663     O1690   2.470       .  S
Zr1663     O1678   2.497       .  S
Zr1663     O1670   2.428       .  S
Zr1663     O1671   2.354       .  S
Zr1663     O1672   2.383       .  S
Zr1663     O1669   2.339       .  S
Zr1664     O1683   2.419       .  S
Zr1664     O1676   2.435       .  S
Zr1664     O1677   2.459       .  S
Zr1664     O1670   2.393       .  S
Zr1664     O1671   2.393       .  S
Zr1665     O1667   2.437   1_556  S
Zr1665     O1689   2.428       .  S
Zr1665     O1691   2.446       .  S
Zr1665     O1672   2.391       .  S
Zr1665     O1669   2.255       .  S
Zr1666     O1692   2.442       .  S
Zr1666     O1693   2.419       .  S
Zr1666     O1668   2.413       .  S
Zr1666     O1670   2.364       .  S
Zr1666     O1669   2.309       .  S
O1668      H1699   0.989       .  S
O1668      H1713   0.990       .  S
O1670      H1696   0.961       .  S
O1671     Zr1681   2.396       .  S
O1672     Zr1681   2.383       .  S
O1672      H1697   0.966       .  S
C1673      C1831   1.484       .  S
C1674      C1734   1.478       .  S
C1675      C1824   1.515       .  S
O1676      H1712   0.991       .  S
O1677      C1679   1.289       .  A
O1678      C1679   1.295       .  A
C1679      C1817   1.489       .  S
O1680     Zr1681   2.431       .  S
O1680      H1709   0.990       .  S
Zr1681     O1684   2.435       .  S
Zr1681     O1685   2.430       .  S
Zr1681     O1686   2.353       .  S
O1682      C1687   1.304       .  A
O1683      H1700   0.986       .  S
O1683      H1715   0.988       .  S
O1684      H1701   0.989       .  S
O1685      H1705   0.990       .  S
O1685      H1714   0.990       .  S
O1686      C1687   1.260       .  A
C1687      C1741   1.515       .  S
O1688      H1707   0.989       .  S
O1688      H1711   0.991       .  S
O1689      H1703   0.987       .  S
O1689      H1710   0.989       .  S
O1690      C1694   1.291       .  A
O1691      C1694   1.287       .  A
O1692      H1702   0.992       .  S
O1693      H1706   0.989       .  S
C1694      C1727   1.500       .  S
C1717      C1944   1.474       .  S
C1717      N1718   1.370       .  A
N1718      C1719   1.366       .  A
C1719      C1968   1.470       .  S
C1719      N2380   1.348       .  A
N1720      C2379   1.348       .  A
C1721      C1920   1.458   1_565  S
C1721      N2382   1.351       .  A
N1722      C2381   1.351       .  A
N1723      C2384   1.363       .  A
C1724      C1772   1.490       .  S
C1724      N2383   1.363       .  A
C1724      C1725   1.382       .  A
C1725      C2386   1.386       .  A
C1725      H1728   1.082       .  S
C1726      C2385   1.386   1_545  A
N1730      C1734   1.354       .  A
N1730      C1923   1.427       .  S
C1731      C1766   1.484       .  S
C1731      C1732   1.387       .  A
C1732      H1735   1.080       .  S
C1733      C1734   1.382       .  A
C1733      H1736   1.082       .  S
N1737      C1741   1.373   1_455  A
N1737      C1947   1.445       .  S
C1738      C1768   1.511       .  S
C1738      C1739   1.388       .  A
C1739      H1742   1.082       .  S
C1740      C1741   1.386       .  A
C1740      H1743   1.082       .  S
Zr1744     O1745   2.435       .  S
Zr1744     O1746   2.462       .  S
Zr1744     O1747   2.522       .  S
Zr1744     O1750   2.470       .  S
Zr1744     O1752   2.381       .  S
Zr1744     O1753   2.405       .  S
Zr1744     O1754   2.396       .  S
Zr1744     O1755   2.392       .  S
O1745      H1801   0.988       .  S
O1745      H1809   0.991       .  S
O1746      C1766   1.289       .  A
O1747      C1768   1.300       .  A
O1748     Zr1758   2.413       .  S
O1748      C1767   1.283       .  A
O1749     Zr1757   2.442       .  S
O1749      C1768   1.287       .  A
O1750      C1767   1.292       .  A
O1751     Zr1759   2.399       .  S
O1751      C1766   1.276       .  A
O1752     Zr1757   2.400       .  S
O1752     Zr1759   2.372       .  S
O1753     Zr1758   2.390       .  S
O1753     Zr1759   2.346       .  S
O1753      H1788   0.964       .  S
O1754     Zr1757   2.407       .  S
O1754     Zr1774   2.338       .  S
O1754      H1791   0.962       .  S
O1755     Zr1758   2.391       .  S
O1755     Zr1774   2.343       .  S
Zr1756     O1781   2.416       .  S
Zr1756     O1775   2.567       .  S
Zr1756     O1783   2.469       .  S
Zr1756     O1771   2.491       .  S
Zr1756     O1762   2.428       .  S
Zr1756     O1763   2.434       .  S
Zr1756     O1764   2.349       .  S
Zr1756     O1765   2.383       .  S
Zr1757     O1776   2.425       .  S
Zr1757     O1769   2.437       .  S
Zr1757     O1770   2.469       .  S
Zr1757     O1763   2.390       .  S
Zr1757     O1764   2.395       .  S
Zr1758     O1760   2.436       .  S
Zr1758     O1782   2.426       .  S
Zr1758     O1784   2.448       .  S
Zr1758     O1762   2.346       .  S
Zr1758     O1765   2.394       .  S
Zr1759     O1785   2.437       .  S
Zr1759     O1786   2.418       .  S
Zr1759     O1761   2.412       .  S
Zr1759     O1762   2.390       .  S
Zr1759     O1763   2.370       .  S
O1760      H1797   0.990       .  S
O1761      H1792   0.991       .  S
O1761      H1806   0.989       .  S
O1763      H1789   0.962       .  S
O1764     Zr1774   2.388       .  S
O1765     Zr1774   2.377       .  S
O1765      H1790   0.966       .  S
C1767      C1834   1.475       .  S
O1770      C1772   1.290       .  A
O1771      C1772   1.293       .  A
O1773     Zr1774   2.432       .  S
O1773      H1802   0.991       .  S
Zr1774     O1777   2.434       .  S
Zr1774     O1778   2.427       .  S
Zr1774     O1779   2.352       .  S
O1775      C1780   1.305       .  A
O1776      H1793   0.988       .  S
O1776      H1808   0.991       .  S
O1777      H1794   0.990       .  S
O1778      H1798   0.989       .  S
O1778      H1807   0.990       .  S
O1779      C1780   1.261       .  A
C1780      C1827   1.516       .  S
O1781      H1800   0.989       .  S
O1781      H1804   0.990       .  S
O1782      H1796   0.988       .  S
O1782      H1803   0.987       .  S
O1783      C1787   1.291       .  A
O1784      C1787   1.288       .  A
O1785      H1795   0.990       .  S
O1786      H1799   0.990       .  S
C1787      C1820   1.499       .  S
C1810      C1872   1.471       .  S
C1810      N1815   1.367       .  A
N1811      C1812   1.345   1_455  A
C1812      C1896   1.460       .  S
C1812      N2473   1.352       .  A
N1813      C2472   1.352   1_545  A
C1814      C1851   1.477       .  S
C1814      N1815   1.370       .  A
N1816      C1820   1.359       .  A
N1816      C2477   1.363       .  A
N1816      C1875   1.433       .  S
C1817      N2476   1.363       .  A
C1817      C1818   1.382       .  A
C1818      C2479   1.385   1_545  A
C1818      H1821   1.082       .  S
C1819      C2478   1.385       .  A
C1819      C1820   1.387       .  A
C1819      H1822   1.082       .  S
N1823      C1827   1.374       .  A
N1823      C1848   1.445       .  S
C1824      C1825   1.388       .  A
C1825      H1828   1.082       .  S
C1826      C1827   1.386       .  A
C1826      H1829   1.082       .  S
N1830      C1834   1.353       .  A
N1830      C1831   1.349       .  A
N1830      C1899   1.428       .  S
C1831      C1832   1.389       .  A
C1832      C1833   1.385       .  A
C1832      H1835   1.082       .  S
C1833      C1834   1.381       .  A
C1833      H1836   1.082       .  S
C1837      C1838   1.397       .  A
C1837      C1842   1.404       .  A
C1837      H1853   1.084       .  S
C1838      C1839   1.403       .  A
C1838      H1854   1.084       .  S
C1839      C1849   1.400       .  A
C1840      C1846   1.413       .  A
C1840      C1841   1.413       .  A
C1841      C1843   1.414       .  A
C1842      C1850   1.399       .  A
C1843      C1852   1.411       .  A
C1843      C1844   1.406       .  A
C1844      C1845   1.404       .  A
C1844      H1855   1.083       .  S
C1845      C1846   1.406       .  A
C1845      H1856   1.083       .  S
C1846      C1847   1.409       .  A
C1847      C1848   1.408       .  A
C1847      H1857   1.084       .  S
C1849      H1858   1.084       .  S
C1850      H1859   1.085       .  S
C1851      C1852   1.407       .  A
C1852      H1860   1.084       .  S
C1861      C1862   1.405       .  A
C1861      C1866   1.407       .  A
C1861      H1877   1.083       .  S
C1862      C1863   1.406       .  A
C1862      H1878   1.083       .  S
C1863      C1873   1.412       .  A
C1863      C2524   1.415       .  A
C1864      C2523   1.415       .  A
C1864      C1870   1.409       .  A
C1864      C1865   1.410       .  A
C1865      C1867   1.413       .  A
C1865      C2526   1.413       .  A
C1866      C2525   1.413       .  A
C1866      C1874   1.408       .  A
C1867      C1876   1.397       .  A
C1867      C1868   1.402       .  A
C1868      C1869   1.395       .  A
C1868      H1879   1.084       .  S
C1869      C1870   1.403       .  A
C1869      H1880   1.084       .  S
C1870      C1871   1.393       .  A
C1871      C2532   1.404       .  A
C1871      H1881   1.085       .  S
C1872      C2531   1.404       .  A
C1872      C1873   1.406       .  A
C1873      H1882   1.084       .  S
C1874      C2535   1.405       .  A
C1874      H1883   1.084       .  S
C1875      C2534   1.405       .  A
C1875      C1876   1.399       .  A
C1876      H1884   1.084       .  S
C1885      C1886   1.396       .  A
C1885      C1890   1.402       .  A
C1885      H1901   1.084       .  S
C1886      C1887   1.403       .  A
C1886      H1902   1.084       .  S
C1887      C1897   1.397       .  A
C1887      C1888   1.412       .  A
C1888      C1894   1.413       .  A
C1888      C1889   1.406       .  A
C1889      C1891   1.414       .  A
C1889      C1890   1.413       .  A
C1890      C1898   1.397       .  A
C1891      C1900   1.399       .  A
C1891      C1892   1.403       .  A
C1892      C1893   1.398       .  A
C1892      H1903   1.084       .  S
C1893      C1894   1.403       .  A
C1893      H1904   1.084       .  S
C1894      C1895   1.399       .  A
C1895      C1896   1.402       .  A
C1895      H1905   1.085       .  S
C1896      C1897   1.402       .  A
C1897      H1906   1.085       .  S
C1898      C1899   1.399       .  A
C1898      H1907   1.084       .  S
C1899      C1900   1.400       .  A
C1900      H1908   1.084       .  S
C1909      C1910   1.399       .  A
C1909      C1914   1.404       .  A
C1909      H1925   1.084       .  S
C1910      C1911   1.404       .  A
C1910      H1926   1.084       .  S
C1911      C1921   1.403       .  A
C1911      C1912   1.414   1_554  A
C1912      C1918   1.410       .  A
C1912      C1913   1.405       .  A
C1913      C1915   1.414       .  A
C1913      C1914   1.413   1_556  A
C1914      C1922   1.400       .  A
C1915      C1924   1.394       .  A
C1915      C1916   1.400       .  A
C1916      C1917   1.393       .  A
C1916      H1927   1.084       .  S
C1917      C1918   1.402       .  A
C1917      H1928   1.084       .  S
C1918      C1919   1.391       .  A
C1919      C1920   1.401       .  A
C1919      H1929   1.085       .  S
C1920      C1921   1.402   1_556  A
C1921      H1930   1.084       .  S
C1922      C1923   1.402   1_554  A
C1922      H1931   1.084       .  S
C1923      C1924   1.396       .  A
C1924      H1932   1.084       .  S
C1933      C1934   1.404       .  A
C1933      C1938   1.406       .  A
C1934      C1935   1.406       .  A
C1935      C1945   1.410       .  A
C1936      C1942   1.411   1_655  A
C1936      C1937   1.412       .  A
C1937      C1939   1.412   1_655  A
C1938      C1946   1.408       .  A
C1939      C1948   1.398       .  A
C1939      C1940   1.402       .  A
C1940      C1941   1.396       .  A
C1940      H1951   1.084       .  S
C1941      C1942   1.403       .  A
C1941      H1952   1.084       .  S
C1942      C1943   1.398       .  A
C1943      C1944   1.404   1_455  A
C1943      H1953   1.085       .  S
C1945      H1954   1.084       .  S
C1947      C1948   1.401       .  A
C1948      H1956   1.084       .  S
C1957      C1958   1.404       .  A
C1957      C1962   1.408       .  A
C1957      H1973   1.083       .  S
C1958      C1959   1.406       .  A
C1958      H1974   1.083       .  S
C1959      C1969   1.410       .  A
C1959      C1960   1.414       .  A
C1960      C1966   1.409   1_556  A
C1960      C1961   1.409       .  A
C1961      C1962   1.412       .  A
C1962      C1970   1.408       .  A
C1963      C1972   1.395       .  A
C1963      C1964   1.402       .  A
C1964      C2625   1.395       .  A
C1964      H1975   1.084       .  S
C1965      C2624   1.395       .  A
C1965      C2296   1.403       .  A
C1965      H1976   1.084       .  S
C1966      C2295   1.403   1_565  A
C1966      C2627   1.393       .  A
C1967      C2626   1.393       .  A
C1967      C1968   1.405   1_554  A
C1968      C2629   1.406       .  A
C1969      C2628   1.406       .  A
C1969      H1978   1.084       .  S
C1970      C1971   1.405       .  A
C1970      H1979   1.084       .  S
C1972      H1980   1.084       .  S
Zr1981     O1982   2.437       .  S
Zr1981     O1983   2.463       .  S
Zr1981     O1984   2.532       .  S
Zr1981     O1987   2.483       .  S
Zr1981     O1989   2.384       .  S
Zr1981     O1990   2.407       .  S
Zr1981     O1991   2.394       .  S
Zr1981     O1992   2.395       .  S
O1982      H2038   0.989       .  S
O1982      H2046   0.990       .  S
O1983      C2003   1.289       .  A
O1984      C2005   1.303       .  A
O1985     Zr1995   2.406       .  S
O1985      C2004   1.281       .  A
O1986     Zr1994   2.446       .  S
O1986      C2005   1.288       .  A
O1987      C2004   1.294       .  A
O1988     Zr1996   2.404       .  S
O1988      C2003   1.276       .  A
O1989     Zr1994   2.404       .  S
O1989     Zr1996   2.373       .  S
O1990     Zr1995   2.392       .  S
O1990     Zr1996   2.345       .  S
O1990      H2025   0.966       .  S
O1991     Zr1994   2.402       .  S
O1991     Zr2011   2.342       .  S
O1991      H2028   0.958       .  S
O1992     Zr1995   2.393       .  S
O1992     Zr2011   2.345       .  S
Zr1993     O2018   2.426       .  S
Zr1993     O2012   2.563       .  S
Zr1993     O2020   2.470       .  S
Zr1993     O2008   2.497       .  S
Zr1993     O2000   2.428       .  S
Zr1993     O2001   2.354       .  S
Zr1993     O2002   2.383       .  S
Zr1993     O1999   2.339       .  S
Zr1994     O2013   2.419       .  S
Zr1994     O2006   2.435       .  S
Zr1994     O2007   2.459       .  S
Zr1994     O2000   2.393       .  S
Zr1994     O2001   2.393       .  S
Zr1995     O1997   2.437       .  S
Zr1995     O2019   2.428       .  S
Zr1995     O2021   2.446       .  S
Zr1995     O2002   2.391       .  S
Zr1995     O1999   2.255       .  S
Zr1996     O2022   2.442       .  S
Zr1996     O2023   2.419       .  S
Zr1996     O1998   2.413       .  S
Zr1996     O2000   2.364       .  S
Zr1996     O1999   2.309       .  S
O1997      H2364   0.990       .  S
O1998      H2029   0.989       .  S
O1998      H2043   0.990       .  S
O2000      H2026   0.961       .  S
O2001     Zr2011   2.396       .  S
O2002     Zr2011   2.383       .  S
O2002      H2027   0.966       .  S
C2003      C2161   1.484       .  S
C2004      C2064   1.478       .  S
C2005      C2154   1.515       .  S
O2006      H2042   0.991       .  S
O2007      C2009   1.289       .  A
O2008      C2009   1.295       .  A
C2009      C2147   1.489       .  S
O2010     Zr2011   2.431       .  S
O2010      H2039   0.990       .  S
Zr2011     O2014   2.435       .  S
Zr2011     O2015   2.430       .  S
Zr2011     O2016   2.353       .  S
O2012      C2017   1.304       .  A
O2013      H2030   0.986       .  S
O2013      H2045   0.988       .  S
O2014      H2031   0.989       .  S
O2015      H2035   0.990       .  S
O2015      H2044   0.990       .  S
O2016      C2017   1.260       .  A
C2017      C2071   1.515       .  S
O2018      H2037   0.989       .  S
O2018      H2041   0.991       .  S
O2019      H2033   0.987       .  S
O2019      H2040   0.989       .  S
O2020      C2024   1.291       .  A
O2021      C2024   1.287       .  A
O2022      H2032   0.992       .  S
O2023      H2036   0.989       .  S
C2024      C2057   1.500       .  S
H2034      O2327   0.990       .  S
C2047      C2274   1.475       .  S
C2047      N2048   1.370       .  A
N2048      C2049   1.366       .  A
C2049      C2298   1.470       .  S
C2051      C2250   1.458       .  S
N2053      C2387   1.357       .  A
N2053      C2631   1.431       .  S
C2054      C2102   1.490       .  S
C2054      C2055   1.382       .  A
C2055      H2058   1.082       .  S
C2056      C2387   1.387       .  A
C2056      H2389   1.082       .  S
C2057      N2383   1.357       .  A
C2057      C2386   1.387       .  A
H2059      C2386   1.082       .  S
N2060      C2064   1.354       .  A
N2060      C2391   1.348       .  A
N2060      C2253   1.427       .  S
C2061      C2096   1.484   1_556  S
C2061      N2390   1.348       .  A
C2061      C2062   1.387       .  A
C2062      C2393   1.385       .  A
C2062      H2065   1.080       .  S
C2063      C2392   1.385       .  A
C2063      C2064   1.382       .  A
C2063      H2066   1.082       .  S
N2067      C2071   1.373   1_455  A
N2067      C2277   1.445       .  S
C2068      C2098   1.511   1_556  S
C2068      C2069   1.388       .  A
C2069      H2072   1.082       .  S
C2070      C2071   1.386       .  A
C2070      H2073   1.082       .  S
Zr2074     O2075   2.435       .  S
Zr2074     O2076   2.462       .  S
Zr2074     O2077   2.522       .  S
Zr2074     O2080   2.471       .  S
Zr2074     O2082   2.381       .  S
Zr2074     O2083   2.405       .  S
Zr2074     O2084   2.396       .  S
Zr2074     O2085   2.392       .  S
O2075      H2131   0.988       .  S
O2075      H2139   0.991       .  S
O2076      C2096   1.289       .  A
O2077      C2098   1.300       .  A
O2078     Zr2088   2.413       .  S
O2078      C2097   1.283       .  A
O2079     Zr2087   2.442       .  S
O2079      C2098   1.287       .  A
O2080      C2097   1.292       .  A
O2081     Zr2089   2.399       .  S
O2081      C2096   1.276       .  A
O2082     Zr2087   2.400       .  S
O2082     Zr2089   2.372       .  S
O2083     Zr2088   2.390       .  S
O2083     Zr2089   2.346       .  S
O2083      H2118   0.964       .  S
O2084     Zr2087   2.407       .  S
O2084     Zr2104   2.338       .  S
O2084      H2121   0.962       .  S
O2085     Zr2088   2.391       .  S
O2085     Zr2104   2.343       .  S
Zr2086     O2111   2.417       .  S
Zr2086     O2105   2.567       .  S
Zr2086     O2113   2.470       .  S
Zr2086     O2101   2.491       .  S
Zr2086     O2092   2.428       .  S
Zr2086     O2093   2.434       .  S
Zr2086     O2094   2.349       .  S
Zr2086     O2095   2.383       .  S
Zr2087     O2106   2.425       .  S
Zr2087     O2099   2.437   1_554  S
Zr2087     O2100   2.469       .  S
Zr2087     O2093   2.390       .  S
Zr2087     O2094   2.395       .  S
Zr2088     O2090   2.436       .  S
Zr2088     O2112   2.426       .  S
Zr2088     O2114   2.448       .  S
Zr2088     O2092   2.346       .  S
Zr2088     O2095   2.394       .  S
Zr2089     O2115   2.437       .  S
Zr2089     O2116   2.418       .  S
Zr2089     O2091   2.412   1_554  S
Zr2089     O2092   2.390       .  S
Zr2089     O2093   2.370       .  S
O2090      H2127   0.990       .  S
O2091      H2122   0.991       .  S
O2091      H2136   0.989       .  S
O2093      H2119   0.962       .  S
O2094     Zr2104   2.388       .  S
O2095     Zr2104   2.377       .  S
O2095      H2120   0.966       .  S
C2097      C2164   1.475       .  S
O2099      H2465   0.989       .  S
O2100      C2102   1.290       .  A
O2101      C2102   1.293       .  A
O2103     Zr2104   2.432       .  S
O2103      H2132   0.991       .  S
Zr2104     O2107   2.434       .  S
Zr2104     O2108   2.427       .  S
Zr2104     O2109   2.352       .  S
O2105      C2110   1.305       .  A
O2106      H2123   0.988       .  S
O2106      H2138   0.991       .  S
O2107      H2124   0.990       .  S
O2108      H2128   0.989       .  S
O2108      H2137   0.990       .  S
O2109      C2110   1.261       .  A
C2110      C2157   1.516       .  S
O2111      H2130   0.989       .  S
O2111      H2134   0.990       .  S
O2112      H2126   0.988       .  S
O2112      H2133   0.987       .  S
O2113      C2117   1.291       .  A
O2114      C2117   1.288       .  A
O2115      H2125   0.990       .  S
O2116      H2129   0.990       .  S
C2117      C2150   1.499       .  S
H2135      O2429   0.989       .  S
C2140      C2202   1.471       .  S
C2140      N2145   1.367       .  A
N2141      C2142   1.345   1_455  A
C2142      C2226   1.460       .  S
C2144      C2181   1.477       .  S
C2144      N2145   1.370       .  A
N2146      C2150   1.359   1_545  A
N2146      C2205   1.433       .  S
C2147      C2148   1.382       .  A
C2148      H2151   1.082       .  S
C2149      C2150   1.387       .  A
C2149      H2152   1.082       .  S
N2153      C2157   1.374       .  A
N2153      C2178   1.445       .  S
C2154      C2155   1.388       .  A
C2155      H2158   1.082       .  S
C2156      C2157   1.386       .  A
C2156      H2159   1.082       .  S
N2160      C2164   1.353       .  A
N2160      C2161   1.349       .  A
N2160      C2229   1.428       .  S
C2161      C2162   1.389       .  A
C2162      C2163   1.385       .  A
C2162      H2165   1.082       .  S
C2163      C2164   1.381       .  A
C2163      H2166   1.082       .  S
C2167      C2168   1.397       .  A
C2167      C2172   1.404       .  A
C2167      H2183   1.084       .  S
C2168      C2169   1.403       .  A
C2168      H2184   1.084       .  S
C2169      C2179   1.400       .  A
C2170      C2176   1.413       .  A
C2170      C2171   1.413       .  A
C2171      C2173   1.414       .  A
C2172      C2180   1.399       .  A
C2173      C2182   1.411       .  A
C2173      C2174   1.406       .  A
C2174      C2175   1.404       .  A
C2174      H2185   1.083       .  S
C2175      C2176   1.406       .  A
C2175      H2186   1.083       .  S
C2176      C2177   1.409       .  A
C2177      C2178   1.408       .  A
C2177      H2187   1.084       .  S
C2179      H2188   1.084       .  S
C2180      H2189   1.085       .  S
C2181      C2182   1.407       .  A
C2182      H2190   1.084       .  S
C2191      C2192   1.405       .  A
C2191      C2196   1.407       .  A
C2191      H2207   1.083       .  S
C2192      C2193   1.406       .  A
C2192      H2208   1.083       .  S
C2193      C2203   1.412       .  A
C2194      C2200   1.409       .  A
C2194      C2195   1.410       .  A
C2195      C2197   1.413   1_545  A
C2196      C2204   1.408       .  A
C2197      C2206   1.397       .  A
C2197      C2198   1.402       .  A
C2198      C2199   1.395       .  A
C2198      H2209   1.084       .  S
C2199      C2200   1.403   1_565  A
C2199      H2210   1.084       .  S
C2200      C2201   1.393       .  A
C2201      H2211   1.085   1_545  S
C2202      C2203   1.406       .  A
C2203      H2212   1.084       .  S
C2204      H2213   1.084       .  S
C2205      C2206   1.399   1_545  A
C2206      H2214   1.084       .  S
C2215      C2216   1.396       .  A
C2215      C2220   1.402       .  A
C2215      H2231   1.084       .  S
C2216      C2217   1.403       .  A
C2216      H2232   1.084       .  S
C2217      C2227   1.397       .  A
C2217      C2218   1.412       .  A
C2218      C2224   1.413       .  A
C2218      C2219   1.406       .  A
C2219      C2221   1.414       .  A
C2219      C2220   1.413       .  A
C2220      C2228   1.397       .  A
C2221      C2230   1.399       .  A
C2221      C2222   1.403       .  A
C2222      C2223   1.398       .  A
C2222      H2233   1.084       .  S
C2223      C2224   1.403       .  A
C2223      H2234   1.084       .  S
C2224      C2225   1.399       .  A
C2225      C2226   1.402       .  A
C2225      H2235   1.085       .  S
C2226      C2227   1.402       .  A
C2227      H2236   1.085       .  S
C2228      C2229   1.399       .  A
C2228      H2237   1.084       .  S
C2229      C2230   1.400       .  A
C2230      H2238   1.084       .  S
C2239      C2240   1.399       .  A
C2239      C2244   1.404       .  A
C2239      H2255   1.084       .  S
C2240      C2241   1.404       .  A
C2240      H2256   1.084       .  S
C2241      C2251   1.403       .  A
C2241      C2242   1.414       .  A
C2242      C2248   1.410       .  A
C2242      C2243   1.405       .  A
C2243      C2245   1.414       .  A
C2243      C2244   1.413       .  A
C2244      C2252   1.401       .  A
C2245      C2254   1.394       .  A
C2245      C2246   1.400       .  A
C2246      C2247   1.393       .  A
C2246      H2257   1.084       .  S
C2247      C2248   1.402       .  A
C2247      H2258   1.084       .  S
C2248      C2249   1.391       .  A
C2249      C2250   1.401       .  A
C2249      H2259   1.085       .  S
C2250      C2251   1.402       .  A
C2251      H2260   1.084       .  S
C2252      C2253   1.402       .  A
C2252      H2261   1.084       .  S
C2253      C2254   1.396       .  A
C2254      H2262   1.084       .  S
C2263      C2264   1.404       .  A
C2263      C2268   1.406       .  A
C2263      H2609   1.083       .  S
C2264      C2265   1.406       .  A
C2264      H2610   1.084       .  S
C2265      C2275   1.410       .  A
C2266      C2272   1.411   1_655  A
C2266      C2267   1.412       .  A
C2267      C2269   1.412   1_655  A
C2268      C2276   1.408       .  A
C2269      C2278   1.398       .  A
C2269      C2270   1.402       .  A
C2270      C2271   1.396       .  A
C2270      H2281   1.084       .  S
C2271      C2272   1.403       .  A
C2271      H2282   1.084       .  S
C2272      C2273   1.398       .  A
C2273      C2274   1.404   1_455  A
C2273      H2283   1.085       .  S
C2275      H2284   1.084       .  S
C2276      H2615   1.084       .  S
C2277      C2278   1.401       .  A
C2278      H2286   1.084       .  S
H2279      C2593   1.083       .  S
H2280      C2594   1.084       .  S
H2285      C2606   1.084       .  S
C2287      C2288   1.404       .  A
C2287      C2292   1.408       .  A
C2287      H2303   1.083       .  S
C2288      C2289   1.406       .  A
C2288      H2304   1.083       .  S
C2289      C2299   1.410       .  A
C2289      C2290   1.414       .  A
C2290      C2296   1.409       .  A
C2290      C2291   1.409       .  A
C2291      C2623   1.413       .  A
C2291      C2292   1.412       .  A
C2292      C2300   1.408       .  A
C2293      C2621   1.413   1_554  A
C2293      C2302   1.395       .  A
C2293      C2294   1.402       .  A
C2294      H2305   1.084       .  S
C2295      H2306   1.084       .  S
C2297      C2298   1.405       .  A
C2297      H2637   1.085   1_565  S
C2299      H2308   1.084       .  S
C2300      C2301   1.405       .  A
C2300      H2309   1.084       .  S
C2301      N2383   1.431       .  S
C2301      C2632   1.398       .  A
C2302      C2631   1.398   1_554  A
C2302      H2310   1.084       .  S
H2307      C2627   1.085   1_545  S
Zr2311     O2312   2.437       .  S
Zr2311     O2313   2.463       .  S
Zr2311     O2314   2.532       .  S
Zr2311     O2317   2.483       .  S
Zr2311     O2319   2.384       .  S
Zr2311     O2320   2.407       .  S
Zr2311     O2321   2.394       .  S
Zr2311     O2322   2.395       .  S
O2312      H2368   0.988       .  S
O2312      H2376   0.990       .  S
O2313      C2333   1.289       .  A
O2314      C2335   1.303       .  A
O2315     Zr2325   2.405       .  S
O2315      C2334   1.281       .  A
O2316     Zr2324   2.446       .  S
O2316      C2335   1.288       .  A
O2317      C2334   1.294       .  A
O2318     Zr2326   2.404       .  S
O2318      C2333   1.276       .  A
O2319     Zr2324   2.404       .  S
O2319     Zr2326   2.373       .  S
O2320     Zr2325   2.392       .  S
O2320     Zr2326   2.345       .  S
O2320      H2355   0.966       .  S
O2321     Zr2324   2.402       .  S
O2321     Zr2341   2.342       .  S
O2321      H2358   0.959       .  S
O2322     Zr2325   2.393       .  S
O2322     Zr2341   2.345       .  S
Zr2323     O2348   2.426       .  S
Zr2323     O2342   2.563       .  S
Zr2323     O2350   2.470       .  S
Zr2323     O2338   2.497       .  S
Zr2323     O2330   2.428       .  S
Zr2323     O2331   2.354       .  S
Zr2323     O2332   2.383       .  S
Zr2323     O2329   2.339       .  S
Zr2324     O2343   2.419       .  S
Zr2324     O2336   2.435       .  S
Zr2324     O2337   2.459       .  S
Zr2324     O2330   2.393       .  S
Zr2324     O2331   2.393       .  S
Zr2325     O2327   2.437   1_556  S
Zr2325     O2349   2.428       .  S
Zr2325     O2351   2.446       .  S
Zr2325     O2332   2.391       .  S
Zr2325     O2329   2.255       .  S
Zr2326     O2352   2.442       .  S
Zr2326     O2353   2.419       .  S
Zr2326     O2328   2.413       .  S
Zr2326     O2330   2.364       .  S
Zr2326     O2329   2.309       .  S
O2328      H2359   0.989       .  S
O2328      H2373   0.990       .  S
O2330      H2356   0.961       .  S
O2331     Zr2341   2.396       .  S
O2332     Zr2341   2.383       .  S
O2332      H2357   0.966       .  S
C2333      C2491   1.484       .  S
C2334      C2394   1.478       .  S
C2335      C2484   1.515       .  S
O2336      H2372   0.991       .  S
O2337      C2339   1.289       .  A
O2338      C2339   1.295       .  A
C2339      C2477   1.489       .  S
O2340     Zr2341   2.431       .  S
O2340      H2369   0.990       .  S
Zr2341     O2344   2.435       .  S
Zr2341     O2345   2.430       .  S
Zr2341     O2346   2.353       .  S
O2342      C2347   1.304       .  A
O2343      H2360   0.986       .  S
O2343      H2375   0.988       .  S
O2344      H2361   0.989       .  S
O2345      H2365   0.990       .  S
O2345      H2374   0.990       .  S
O2346      C2347   1.260       .  A
C2347      C2401   1.515       .  S
O2348      H2367   0.989       .  S
O2348      H2371   0.991       .  S
O2349      H2363   0.987       .  S
O2349      H2370   0.989       .  S
O2350      C2354   1.291       .  A
O2351      C2354   1.287       .  A
O2352      H2362   0.992       .  S
O2353      H2366   0.989       .  S
C2354      C2387   1.500       .  S
C2377      C2604   1.474       .  S
C2377      N2378   1.370       .  A
N2378      C2379   1.366       .  A
C2379      C2628   1.470       .  S
C2381      C2580   1.458       .  S
C2384      C2432   1.489       .  S
C2384      C2385   1.382       .  A
C2385      H2388   1.082       .  S
N2390      C2394   1.354       .  A
N2390      C2583   1.427       .  S
C2391      C2426   1.484       .  S
C2391      C2392   1.387       .  A
C2392      H2395   1.080       .  S
C2393      C2394   1.382       .  A
C2393      H2396   1.082       .  S
N2397      C2401   1.373   1_455  A
N2397      C2607   1.445       .  S
C2398      C2428   1.511       .  S
C2398      C2399   1.388       .  A
C2399      H2402   1.082       .  S
C2400      C2401   1.386       .  A
C2400      H2403   1.082       .  S
Zr2404     O2405   2.435       .  S
Zr2404     O2406   2.462       .  S
Zr2404     O2407   2.522       .  S
Zr2404     O2410   2.470       .  S
Zr2404     O2412   2.381       .  S
Zr2404     O2413   2.405       .  S
Zr2404     O2414   2.396       .  S
Zr2404     O2415   2.392       .  S
O2405      H2461   0.987       .  S
O2405      H2469   0.991       .  S
O2406      C2426   1.289       .  A
O2407      C2428   1.300       .  A
O2408     Zr2418   2.413       .  S
O2408      C2427   1.283       .  A
O2409     Zr2417   2.442       .  S
O2409      C2428   1.287       .  A
O2410      C2427   1.292       .  A
O2411     Zr2419   2.399       .  S
O2411      C2426   1.276       .  A
O2412     Zr2417   2.400       .  S
O2412     Zr2419   2.372       .  S
O2413     Zr2418   2.390       .  S
O2413     Zr2419   2.346       .  S
O2413      H2448   0.964       .  S
O2414     Zr2417   2.407       .  S
O2414     Zr2434   2.338       .  S
O2414      H2451   0.962       .  S
O2415     Zr2418   2.391       .  S
O2415     Zr2434   2.343       .  S
Zr2416     O2441   2.416       .  S
Zr2416     O2435   2.567       .  S
Zr2416     O2443   2.469       .  S
Zr2416     O2431   2.491       .  S
Zr2416     O2422   2.428       .  S
Zr2416     O2423   2.434       .  S
Zr2416     O2424   2.349       .  S
Zr2416     O2425   2.383       .  S
Zr2417     O2436   2.425       .  S
Zr2417     O2429   2.437       .  S
Zr2417     O2430   2.469       .  S
Zr2417     O2423   2.390       .  S
Zr2417     O2424   2.395       .  S
Zr2418     O2420   2.436       .  S
Zr2418     O2442   2.426       .  S
Zr2418     O2444   2.448       .  S
Zr2418     O2422   2.346       .  S
Zr2418     O2425   2.394       .  S
Zr2419     O2445   2.437       .  S
Zr2419     O2446   2.418       .  S
Zr2419     O2421   2.412       .  S
Zr2419     O2422   2.390       .  S
Zr2419     O2423   2.370       .  S
O2420      H2457   0.990       .  S
O2421      H2452   0.991       .  S
O2421      H2466   0.989       .  S
O2423      H2449   0.962       .  S
O2424     Zr2434   2.388       .  S
O2425     Zr2434   2.377       .  S
O2425      H2450   0.966       .  S
C2427      C2494   1.475       .  S
O2430      C2432   1.290       .  A
O2431      C2432   1.293       .  A
O2433     Zr2434   2.432       .  S
O2433      H2462   0.991       .  S
Zr2434     O2437   2.434       .  S
Zr2434     O2438   2.427       .  S
Zr2434     O2439   2.352       .  S
O2435      C2440   1.305       .  A
O2436      H2453   0.988       .  S
O2436      H2468   0.991       .  S
O2437      H2454   0.990       .  S
O2438      H2458   0.989       .  S
O2438      H2467   0.990       .  S
O2439      C2440   1.261       .  A
C2440      C2487   1.516       .  S
O2441      H2460   0.989       .  S
O2441      H2464   0.990       .  S
O2442      H2456   0.988       .  S
O2442      H2463   0.986       .  S
O2443      C2447   1.291       .  A
O2444      C2447   1.288       .  A
O2445      H2455   0.990       .  S
O2446      H2459   0.990       .  S
C2447      C2480   1.499       .  S
C2470      C2532   1.471       .  S
C2470      N2475   1.367       .  A
N2471      C2472   1.345   1_455  A
C2472      C2556   1.460       .  S
C2474      C2511   1.477       .  S
C2474      N2475   1.370       .  A
N2476      C2480   1.359   1_545  A
N2476      C2535   1.433       .  S
C2477      C2478   1.382       .  A
C2478      H2481   1.082       .  S
C2479      C2480   1.387       .  A
C2479      H2482   1.082       .  S
N2483      C2487   1.374       .  A
N2483      C2508   1.445       .  S
C2484      C2485   1.388       .  A
C2485      H2488   1.082       .  S
C2486      C2487   1.386       .  A
C2486      H2489   1.082       .  S
N2490      C2494   1.353       .  A
N2490      C2491   1.349       .  A
N2490      C2559   1.428       .  S
C2491      C2492   1.389       .  A
C2492      C2493   1.385       .  A
C2492      H2495   1.082       .  S
C2493      C2494   1.381       .  A
C2493      H2496   1.082       .  S
C2497      C2498   1.397       .  A
C2497      C2502   1.404       .  A
C2497      H2513   1.084       .  S
C2498      C2499   1.403       .  A
C2498      H2514   1.084       .  S
C2499      C2509   1.400       .  A
C2500      C2506   1.413       .  A
C2500      C2501   1.413       .  A
C2501      C2503   1.414       .  A
C2502      C2510   1.399       .  A
C2503      C2512   1.411       .  A
C2503      C2504   1.406       .  A
C2504      C2505   1.404       .  A
C2504      H2515   1.083       .  S
C2505      C2506   1.406       .  A
C2505      H2516   1.083       .  S
C2506      C2507   1.409       .  A
C2507      C2508   1.408       .  A
C2507      H2517   1.084       .  S
C2509      H2518   1.084       .  S
C2510      H2519   1.085       .  S
C2511      C2512   1.407       .  A
C2512      H2520   1.084       .  S
C2521      C2522   1.405       .  A
C2521      C2526   1.407       .  A
C2521      H2537   1.083       .  S
C2522      C2523   1.406       .  A
C2522      H2538   1.083       .  S
C2523      C2533   1.412       .  A
C2524      C2530   1.409       .  A
C2524      C2525   1.410       .  A
C2525      C2527   1.413   1_545  A
C2526      C2534   1.408       .  A
C2527      C2536   1.397       .  A
C2527      C2528   1.402       .  A
C2528      C2529   1.395       .  A
C2528      H2539   1.084       .  S
C2529      C2530   1.403   1_565  A
C2529      H2540   1.084       .  S
C2530      C2531   1.393       .  A
C2531      H2541   1.085   1_545  S
C2532      C2533   1.406       .  A
C2533      H2542   1.084       .  S
C2534      H2543   1.084       .  S
C2535      C2536   1.399   1_545  A
C2536      H2544   1.084       .  S
C2545      C2546   1.396       .  A
C2545      C2550   1.402       .  A
C2545      H2561   1.084       .  S
C2546      C2547   1.403       .  A
C2546      H2562   1.084       .  S
C2547      C2557   1.397       .  A
C2547      C2548   1.412       .  A
C2548      C2554   1.413       .  A
C2548      C2549   1.406       .  A
C2549      C2551   1.414       .  A
C2549      C2550   1.413       .  A
C2550      C2558   1.397       .  A
C2551      C2560   1.399       .  A
C2551      C2552   1.403       .  A
C2552      C2553   1.398       .  A
C2552      H2563   1.084       .  S
C2553      C2554   1.403       .  A
C2553      H2564   1.084       .  S
C2554      C2555   1.399       .  A
C2555      C2556   1.402       .  A
C2555      H2565   1.085       .  S
C2556      C2557   1.402       .  A
C2557      H2566   1.085       .  S
C2558      C2559   1.399       .  A
C2558      H2567   1.084       .  S
C2559      C2560   1.400       .  A
C2560      H2568   1.084       .  S
C2569      C2570   1.399       .  A
C2569      C2574   1.404       .  A
C2569      H2585   1.084       .  S
C2570      C2571   1.404       .  A
C2570      H2586   1.084       .  S
C2571      C2581   1.403       .  A
C2571      C2572   1.414   1_554  A
C2572      C2578   1.410       .  A
C2572      C2573   1.405       .  A
C2573      C2575   1.414       .  A
C2573      C2574   1.413   1_556  A
C2574      C2582   1.401       .  A
C2575      C2584   1.394       .  A
C2575      C2576   1.400       .  A
C2576      C2577   1.393       .  A
C2576      H2587   1.084       .  S
C2577      C2578   1.402       .  A
C2577      H2588   1.084       .  S
C2578      C2579   1.391       .  A
C2579      C2580   1.401       .  A
C2579      H2589   1.085       .  S
C2580      C2581   1.402   1_556  A
C2581      H2590   1.084       .  S
C2582      C2583   1.402   1_554  A
C2582      H2591   1.084       .  S
C2583      C2584   1.396       .  A
C2584      H2592   1.084       .  S
C2593      C2594   1.404       .  A
C2593      C2598   1.406       .  A
C2594      C2595   1.406       .  A
C2595      C2605   1.410       .  A
C2596      C2602   1.411   1_655  A
C2596      C2597   1.412       .  A
C2597      C2599   1.412   1_655  A
C2598      C2606   1.408       .  A
C2599      C2608   1.398       .  A
C2599      C2600   1.402       .  A
C2600      C2601   1.396       .  A
C2600      H2611   1.084       .  S
C2601      C2602   1.403       .  A
C2601      H2612   1.084       .  S
C2602      C2603   1.398       .  A
C2603      C2604   1.404   1_455  A
C2603      H2613   1.085       .  S
C2605      H2614   1.084       .  S
C2607      C2608   1.401       .  A
C2608      H2616   1.084       .  S
C2617      C2618   1.404       .  A
C2617      C2622   1.408       .  A
C2617      H2633   1.083       .  S
C2618      C2619   1.406       .  A
C2618      H2634   1.083       .  S
C2619      C2629   1.410       .  A
C2619      C2620   1.414       .  A
C2620      C2626   1.409   1_556  A
C2620      C2621   1.409       .  A
C2621      C2622   1.412       .  A
C2622      C2630   1.408       .  A
C2623      C2632   1.395       .  A
C2623      C2624   1.402       .  A
C2624      H2635   1.084       .  S
C2625      H2636   1.084       .  S
C2627      C2628   1.405   1_554  A
C2629      H2638   1.084       .  S
C2630      C2631   1.405       .  A
C2630      H2639   1.084       .  S
C2632      H2640   1.084       .  S
