geometry optimzed in LAMMPS
_audit_creation_date              2020-12-01 
_audit_creation_method            'lammps2cif' 
_symmetry_space_group_name_H-M    'P1' 
_symmetry_Int_Tables_number       1 
_symmetry_cell_setting            triclinic 
loop_ 
_symmetry_equiv_pos_as_xyz 
  x,y,z 
_cell_length_a                    36.49782756 
_cell_length_b                    36.49032498333104 
_cell_length_c                    25.5442637616725 
_cell_angle_alpha                 90.000605772966 
_cell_angle_beta                  89.99947244643779 
_cell_angle_gamma                 121.08039896893148 
loop_ 
_atom_site_label 
_atom_site_type_symbol 
_atom_site_fract_x 
_atom_site_fract_y 
_atom_site_fract_z 
_atom_site_charge 
C1          C  0.10225205  0.10201648  0.79508650     0.82900
N2          N  0.09327043  0.08121349  0.74863525    -0.75400
C3          C  0.10278945  0.10328879  0.70306963     0.85400
N4          N  0.12124210  0.14645294  0.70384714    -0.75300
C5          C  0.13019437  0.16741469  0.75039862     0.85500
N6          N  0.12071963  0.14520013  0.79607865    -0.77000
C7          C  0.08580131  0.32548805  0.79616233     0.82900
N8          N  0.10903019  0.30606327  0.79670555    -0.75400
C9          C  0.12074123  0.29613740  0.75078496     0.84600
N10         N  0.10944712  0.30590801  0.70444390    -0.75300
C11         C  0.08621839  0.32533387  0.70415961     0.85500
N12         N  0.07458290  0.33512728  0.74995897    -0.77000
C13         C  0.14636678  0.27592482  0.75122748     0.82900
N14         N  0.18973693  0.30049310  0.75130399    -0.75400
C15         C  0.21358813  0.28172858  0.75144279     0.85400
N16         N  0.19410432  0.23847447  0.75130792    -0.75300
C17         C  0.15081342  0.21389754  0.75125280     0.85500
N18         N  0.12689631  0.23260383  0.75112561    -0.77000
C19         C  0.32589473  0.34188949  0.79535123     0.82900
N20         N  0.28248691  0.31923776  0.79633303    -0.75400
C21         C  0.26016429  0.30780781  0.75064260     0.85400
N22         N  0.28124783  0.31855207  0.70410281    -0.75300
C23         C  0.32462929  0.34119141  0.70333582     0.85500
N24         N  0.34679615  0.35268333  0.74890380    -0.77000
Zn25       Zn  0.47961407  0.45516445  0.97614739     1.49700
Zn26       Zn  0.06490363  0.44931784  0.97525007     1.49400
Zn27       Zn  0.00556935  0.42204624  0.07633051     1.49100
Zn28       Zn  0.47163522  0.36285348  0.97510232     1.49500
O29         O  0.00544890  0.42232353  0.00029499    -1.81400
O30         O  0.52111898  0.50465267  0.93102208    -0.72100
O31         O  0.10754943  0.46849346  0.03506091    -0.71900
O32         O  0.47969999  0.45446049  0.10569353    -0.71400
O33         O  0.07989055  0.00047485  0.92965896    -0.72100
O34         O  0.46120024  0.47824969  0.03640511    -0.71700
O35         O  0.06493194  0.44860679  0.10473645    -0.72300
O36         O  0.44751855  0.32004169  0.03481735    -0.71600
O37         O  0.07228177  0.40808537  0.93042288    -0.72400
O38         O  0.47229394  0.36251813  0.10457380    -0.71800
O39         O  0.00800690  0.34851388  0.93010270    -0.72300
O40         O  0.42273373  0.35489492  0.92971269    -0.72200
O41         O  0.42810324  0.41853811  0.93079991    -0.72000
C42         C  0.05910993  0.01806253  0.91555315     0.79800
C43         C  0.10190102  0.46549519  0.08439363     0.80300
C44         C  0.46359325  0.47486388  0.08568425     0.79300
C45         C  0.45118799  0.32555680  0.08415892     0.79700
C46         C  0.04695850  0.36972940  0.91574511     0.80800
C47         C  0.40993845  0.37986240  0.91550153     0.79800
Zn48       Zn  0.00501942  0.42251528  0.57633054     1.49700
Zn49       Zn  0.03894713  0.48171059  0.47510428     1.49400
Zn50       Zn  0.03098235  0.38940510  0.47614546     1.49100
Zn51       Zn  0.44568543  0.39523825  0.47525010     1.49500
O52         O  0.00514036  0.42223939  0.50029499    -1.81400
O53         O  0.03828706  0.48204296  0.60457593    -0.72100
O54         O  0.08785192  0.98967682  0.42971414    -0.71900
O55         O  0.04940152  0.36632437  0.53640125    -0.71400
O56         O  0.06305825  0.02452164  0.53482117    -0.72100
O57         O  0.03089676  0.39010819  0.60569102    -0.71700
O58         O  0.08249157  0.42603812  0.43079976    -0.72300
O59         O  0.43070593  0.34408388  0.42965692    -0.71600
O60         O  0.50257030  0.49604373  0.43010635    -0.72400
O61         O  0.98948265  0.33991504  0.43101718    -0.71800
O62         O  0.43829977  0.43646638  0.43042487    -0.72300
O63         O  0.40303864  0.37605698  0.53506148    -0.72200
O64         O  0.44565578  0.39594667  0.60473679    -0.72000
C65         C  0.05938900  0.01900531  0.58416263     0.79800
C66         C  0.10065191  0.46471346  0.41550219     0.80300
C67         C  0.04700809  0.36970920  0.58568060     0.79300
C68         C  0.45149063  0.32650067  0.41554855     0.79700
C69         C  0.46361895  0.47482363  0.41574842     0.80800
C70         C  0.40868659  0.37905496  0.58439413     0.79800
C71         C  0.18595806  0.00336266  0.20333480     0.82900
N72         N  0.22933876  0.02600147  0.20410051    -0.75400
C73         C  0.25042362  0.03675393  0.25063964     0.85400
N74         N  0.22810106  0.02533076  0.29633077    -0.75300
C75         C  0.18469397  0.00267958  0.29535007     0.85500
N76         N  0.16379131  0.99187809  0.24890351    -0.77000
C77         C  0.42437652  0.51923386  0.20416501     0.82900
N78         N  0.43600354  0.50943290  0.24996452    -0.75400
C79         C  0.42477669  0.51906516  0.29616773     0.85400
N80         N  0.40154792  0.53849025  0.29670933    -0.75300
C81         C  0.38984561  0.54842356  0.25078832     0.85500
N82         N  0.40114835  0.53866042  0.20444748    -0.77000
C83         C  0.36422004  0.06863614  0.25122783     0.82900
N84         N  0.38369067  0.11195738  0.25112250    -0.75400
C85         C  0.35977310  0.13066340  0.25124494     0.85400
N86         N  0.31648300  0.10608703  0.25129977    -0.75300
C87         C  0.29699882  0.06283250  0.25143843     0.85500
N88         N  0.32085075  0.04406838  0.25130416    -0.77000
C89         C  0.40778962  0.24127238  0.20306407     0.82900
N90         N  0.38933652  0.19810769  0.20383940    -0.75400
C91         C  0.38039297  0.17714745  0.25039188     0.85400
N92         N  0.38987553  0.19936227  0.29607126    -0.75300
C93         C  0.40834313  0.24254650  0.29508124     0.85500
N94         N  0.41731630  0.26334777  0.24862883    -0.77000
C95         C  0.43251222  0.29197879  0.37855138    -0.10600
C96         C  0.41972312  0.26691783  0.34266778    -0.12100
C97         C  0.13517877  0.97996395  0.37865930    -0.10600
C98         C  0.16028709  0.99120906  0.34291205    -0.12100
C99         C  0.44831455  0.49389005  0.37944146    -0.10600
C100        C  0.43665579  0.50716532  0.34390130    -0.12100
C101        C  0.43153656  0.28949356  0.11880361    -0.10600
C102        C  0.41864835  0.26435589  0.15456774    -0.12100
C103        C  0.44765370  0.49422723  0.12059503    -0.10600
C104        C  0.43590077  0.50753310  0.15600397    -0.12100
C105        C  0.13780443  0.98140945  0.11910463    -0.10600
C106        C  0.16286252  0.99259811  0.15485924    -0.12100
C107        C  0.34772413  0.35195012  0.65485980    -0.10600
C108        C  0.37278266  0.36313785  0.61910510    -0.12100
C109        C  0.35030226  0.35336677  0.84291245    -0.10600
C110        C  0.37541171  0.36461475  0.87865915    -0.12100
C111        C  0.06295030  0.35034818  0.62059014    -0.10600
C112        C  0.07470109  0.33704037  0.65599887    -0.12100
C113        C  0.07391687  0.33738376  0.84389613    -0.10600
C114        C  0.06225865  0.35065954  0.87943686    -0.12100
C115        C  0.07903687  0.05506779  0.61880846    -0.10600
C116        C  0.09192545  0.08020476  0.65457417    -0.12100
C117        C  0.09087868  0.07764529  0.84267434    -0.10600
C118        C  0.07809143  0.05258488  0.87855680    -0.12100
C119        C  0.10225212  0.60201669  0.79508663     0.82900
N120        N  0.09327051  0.58121372  0.74863521    -0.75400
C121        C  0.10278948  0.60328890  0.70306972     0.85400
N122        N  0.12124194  0.64645254  0.70384719    -0.75300
C123        C  0.13019439  0.66741467  0.75039873     0.85500
N124        N  0.12071955  0.64519987  0.79607866    -0.77000
C125        C  0.08580119  0.82548798  0.79616229     0.82900
N126        N  0.10903013  0.80606317  0.79670549    -0.75400
C127        C  0.12074113  0.79613735  0.75078502     0.84600
N128        N  0.10944704  0.80590790  0.70444393    -0.75300
C129        C  0.08621819  0.82533370  0.70415966     0.85500
N130        N  0.07458272  0.83512713  0.74995887    -0.77000
C131        C  0.14636660  0.77592445  0.75122751     0.82900
N132        N  0.18973670  0.80049292  0.75130404    -0.75400
C133        C  0.21358819  0.78172850  0.75144283     0.85400
N134        N  0.19410447  0.73847477  0.75130789    -0.75300
C135        C  0.15081349  0.71389734  0.75125271     0.85500
N136        N  0.12689629  0.73260387  0.75112554    -0.77000
C137        C  0.32589431  0.84188910  0.79535117     0.82900
N138        N  0.28248701  0.81923789  0.79633301    -0.75400
C139        C  0.26016389  0.80780750  0.75064246     0.85400
N140        N  0.28124788  0.81855213  0.70410271    -0.75300
C141        C  0.32462882  0.84119121  0.70333581     0.85500
N142        N  0.34679624  0.85268337  0.74890392    -0.77000
Zn143      Zn  0.47961402  0.95516446  0.97614743     1.49700
Zn144      Zn  0.06490360  0.94931786  0.97525006     1.49400
Zn145      Zn  0.00556938  0.92204626  0.07633051     1.49100
Zn146      Zn  0.47163522  0.86285343  0.97510232     1.49500
O147        O  0.00544879  0.92232346  0.00029498    -1.81400
O148        O  0.52111896  0.00465271  0.93102220    -0.72100
O149        O  0.10754937  0.96849347  0.03506080    -0.71900
O150        O  0.47970009  0.95446054  0.10569359    -0.71400
O151        O  0.07989063  0.50047487  0.92965897    -0.72100
O152        O  0.46120045  0.97824982  0.03640520    -0.71700
O153        O  0.06493175  0.94860670  0.10473649    -0.72300
O154        O  0.44751864  0.82004186  0.03481739    -0.71600
O155        O  0.07228211  0.90808558  0.93042282    -0.72400
O156        O  0.47229396  0.86251826  0.10457395    -0.71800
O157        O  0.00800678  0.84851384  0.93010265    -0.72300
O158        O  0.42273384  0.85489507  0.92971280    -0.72200
O159        O  0.42810319  0.91853783  0.93079988    -0.72000
C160        C  0.05910995  0.51806253  0.91555320     0.79800
C161        C  0.10190082  0.96549503  0.08439353     0.80300
C162        C  0.46359316  0.97486370  0.08568430     0.79300
C163        C  0.45118806  0.82555701  0.08415890     0.79700
C164        C  0.04695855  0.86972945  0.91574512     0.80800
C165        C  0.40993853  0.87986234  0.91550150     0.79800
Zn166      Zn  0.00501940  0.92251526  0.57633059     1.49700
Zn167      Zn  0.03894713  0.98171065  0.47510423     1.49400
Zn168      Zn  0.03098244  0.88940515  0.47614552     1.49100
Zn169      Zn  0.44568542  0.89523833  0.47525014     1.49500
O170        O  0.00514052  0.92223960  0.50029500    -1.81400
O171        O  0.03828730  0.98204318  0.60457587    -0.72100
O172        O  0.08785176  0.48967697  0.42971415    -0.71900
O173        O  0.04940148  0.86632437  0.53640136    -0.71400
O174        O  0.06305800  0.52452139  0.53482126    -0.72100
O175        O  0.03089682  0.89010825  0.60569107    -0.71700
O176        O  0.08249161  0.92603820  0.43079970    -0.72300
O177        O  0.43070619  0.84408360  0.42965687    -0.71600
O178        O  0.50256997  0.99604348  0.43010632    -0.72400
O179        O  0.98948259  0.83991501  0.43101714    -0.71800
O180        O  0.43829980  0.93646630  0.43042486    -0.72300
O181        O  0.40303879  0.87605700  0.53506163    -0.72200
O182        O  0.44565600  0.89594694  0.60473689    -0.72000
C183        C  0.05938873  0.51900506  0.58416269     0.79800
C184        C  0.10065195  0.96471336  0.41550218     0.80300
C185        C  0.04700820  0.86970930  0.58568067     0.79300
C186        C  0.45149091  0.82650065  0.41554860     0.79700
C187        C  0.46361874  0.97482346  0.41574841     0.80800
C188        C  0.40868681  0.87905503  0.58439424     0.79800
C189        C  0.18595734  0.50336219  0.20333483     0.82900
N190        N  0.22933922  0.52600176  0.20410064    -0.75400
C191        C  0.25042296  0.53675346  0.25063959     0.85400
N192        N  0.22810134  0.52533103  0.29633068    -0.75300
C193        C  0.18469318  0.50267930  0.29535014     0.85500
N194        N  0.16379129  0.49187804  0.24890366    -0.77000
C195        C  0.42437640  0.01923390  0.20416508     0.82900
N196        N  0.43600354  0.00943286  0.24996445    -0.75400
C197        C  0.42477660  0.01906515  0.29616780     0.85400
N198        N  0.40154779  0.03849004  0.29670934    -0.75300
C199        C  0.38984562  0.04842373  0.25078845     0.85500
N200        N  0.40114834  0.03866035  0.20444753    -0.77000
C201        C  0.36422037  0.56863674  0.25122793     0.82900
N202        N  0.38369068  0.61195728  0.25112249    -0.75400
C203        C  0.35977364  0.63066427  0.25124489     0.85400
N204        N  0.31648278  0.60608684  0.25129974    -0.75300
C205        C  0.29699936  0.56283318  0.25143827     0.85500
N206        N  0.32085045  0.54406810  0.25130424    -0.77000
C207        C  0.40778930  0.74127170  0.20306417     0.82900
N208        N  0.38933664  0.69810804  0.20383938    -0.75400
C209        C  0.38039261  0.67714657  0.25039181     0.85400
N210        N  0.38987569  0.69936248  0.29607136    -0.75300
C211        C  0.40834279  0.74254565  0.29508135     0.85500
N212        N  0.41731651  0.76334810  0.24862907    -0.77000
C213        C  0.43251238  0.79197879  0.37855115    -0.10600
C214        C  0.41972324  0.76691806  0.34266798    -0.12100
C215        C  0.13517864  0.47996402  0.37865942    -0.10600
C216        C  0.16028730  0.49120922  0.34291203    -0.12100
C217        C  0.44831442  0.99388991  0.37944157    -0.10600
C218        C  0.43665597  0.00716541  0.34390134    -0.12100
C219        C  0.43153649  0.78949348  0.11880352    -0.10600
C220        C  0.41864837  0.76435603  0.15456745    -0.12100
C221        C  0.44765382  0.99422727  0.12059514    -0.10600
C222        C  0.43590083  0.00753308  0.15600393    -0.12100
C223        C  0.13780432  0.48140931  0.11910445    -0.10600
C224        C  0.16286269  0.49259818  0.15485932    -0.12100
C225        C  0.34772418  0.85195026  0.65485971    -0.10600
C226        C  0.37278266  0.86313776  0.61910523    -0.12100
C227        C  0.35030241  0.85336695  0.84291262    -0.10600
C228        C  0.37541172  0.86461482  0.87865903    -0.12100
C229        C  0.06295024  0.85034801  0.62059013    -0.10600
C230        C  0.07470101  0.83704025  0.65599886    -0.12100
C231        C  0.07391690  0.83738375  0.84389602    -0.10600
C232        C  0.06225852  0.85065937  0.87943689    -0.12100
C233        C  0.07903682  0.55506766  0.61880850    -0.10600
C234        C  0.09192545  0.58020471  0.65457402    -0.12100
C235        C  0.09087856  0.57764529  0.84267433    -0.10600
C236        C  0.07809145  0.55258492  0.87855690    -0.12100
C237        C  0.60225208  0.10201649  0.79508649     0.82900
N238        N  0.59327024  0.08121347  0.74863525    -0.75400
C239        C  0.60278949  0.10328880  0.70306964     0.85400
N240        N  0.62124213  0.14645297  0.70384714    -0.75300
C241        C  0.63019425  0.16741470  0.75039863     0.85500
N242        N  0.62071966  0.14520015  0.79607865    -0.77000
C243        C  0.58580125  0.32548822  0.79616222     0.82900
N244        N  0.60903019  0.30606311  0.79670559    -0.75400
C245        C  0.62074120  0.29613740  0.75078495     0.84600
N246        N  0.60944729  0.30590779  0.70444403    -0.75300
C247        C  0.58621828  0.32533386  0.70415963     0.85500
N248        N  0.57458275  0.33512741  0.74995914    -0.77000
C249        C  0.64636742  0.27592492  0.75122745     0.82900
N250        N  0.68973673  0.30049313  0.75130405    -0.75400
C251        C  0.71358857  0.28172856  0.75144284     0.85400
N252        N  0.69410406  0.23847426  0.75130796    -0.75300
C253        C  0.65081393  0.21389759  0.75125281     0.85500
N254        N  0.62689641  0.23260405  0.75112563    -0.77000
C255        C  0.82589447  0.34188930  0.79535118     0.82900
N256        N  0.78248705  0.31923788  0.79633308    -0.75400
C257        C  0.76016404  0.30780765  0.75064238     0.85400
N258        N  0.78124811  0.31855223  0.70410280    -0.75300
C259        C  0.82462925  0.34119151  0.70333580     0.85500
N260        N  0.84679624  0.35268333  0.74890406    -0.77000
Zn261      Zn  0.97961403  0.45516450  0.97614737     1.49700
Zn262      Zn  0.56490362  0.44931786  0.97525005     1.49400
Zn263      Zn  0.50556937  0.42204625  0.07633051     1.49100
Zn264      Zn  0.97163517  0.36285347  0.97510235     1.49500
O265        O  0.50544903  0.42232351  0.00029500    -1.81400
O266        O  0.02111916  0.50465262  0.93102217    -0.72100
O267        O  0.60754948  0.46849345  0.03506094    -0.71900
O268        O  0.97970007  0.45446067  0.10569352    -0.71400
O269        O  0.57989066  0.00047487  0.92965893    -0.72100
O270        O  0.96120023  0.47824965  0.03640503    -0.71700
O271        O  0.56493193  0.44860685  0.10473642    -0.72300
O272        O  0.94751845  0.32004170  0.03481735    -0.71600
O273        O  0.57228189  0.40808531  0.93042285    -0.72400
O274        O  0.97229396  0.36251814  0.10457379    -0.71800
O275        O  0.50800690  0.34851388  0.93010277    -0.72300
O276        O  0.92273376  0.35489492  0.92971282    -0.72200
O277        O  0.92810314  0.41853796  0.93079991    -0.72000
C278        C  0.55910983  0.01806251  0.91555319     0.79800
C279        C  0.60190100  0.46549520  0.08439364     0.80300
C280        C  0.96359317  0.47486388  0.08568426     0.79300
C281        C  0.95118803  0.32555681  0.08415891     0.79700
C282        C  0.54695849  0.36972937  0.91574505     0.80800
C283        C  0.90993853  0.37986233  0.91550147     0.79800
Zn284      Zn  0.50501943  0.42251534  0.57633047     1.49700
Zn285      Zn  0.53894708  0.48171059  0.47510419     1.49400
Zn286      Zn  0.53098236  0.38940516  0.47614551     1.49100
Zn287      Zn  0.94568544  0.39523828  0.47525014     1.49500
O288        O  0.50514021  0.42223939  0.50029495    -1.81400
O289        O  0.53828710  0.48204296  0.60457593    -0.72100
O290        O  0.58785185  0.98967682  0.42971423    -0.71900
O291        O  0.54940148  0.36632422  0.53640118    -0.71400
O292        O  0.56305816  0.02452161  0.53482118    -0.72100
O293        O  0.53089689  0.39010814  0.60569116    -0.71700
O294        O  0.58249152  0.42603807  0.43079976    -0.72300
O295        O  0.93070601  0.34408377  0.42965679    -0.71600
O296        O  0.00257024  0.49604382  0.43010623    -0.72400
O297        O  0.48948243  0.33991493  0.43101706    -0.71800
O298        O  0.93829971  0.43646621  0.43042477    -0.72300
O299        O  0.90303877  0.37605699  0.53506151    -0.72200
O300        O  0.94565600  0.39594687  0.60473694    -0.72000
C301        C  0.55938888  0.01900531  0.58416262     0.79800
C302        C  0.60065173  0.46471342  0.41550230     0.80300
C303        C  0.54700818  0.36970914  0.58568053     0.79300
C304        C  0.95149082  0.32650067  0.41554854     0.79700
C305        C  0.96361876  0.47482360  0.41574835     0.80800
C306        C  0.90868674  0.37905501  0.58439419     0.79800
C307        C  0.68595799  0.00336261  0.20333483     0.82900
N308        N  0.72933877  0.02600157  0.20410046    -0.75400
C309        C  0.75042357  0.03675381  0.25063939     0.85400
N310        N  0.72810113  0.02533079  0.29633075    -0.75300
C311        C  0.68469407  0.00267972  0.29535008     0.85500
N312        N  0.66379123  0.99187804  0.24890376    -0.77000
C313        C  0.92437675  0.51923382  0.20416493     0.82900
N314        N  0.93600335  0.50943302  0.24996437    -0.75400
C315        C  0.92477689  0.51906492  0.29616777     0.85400
N316        N  0.90154788  0.53849023  0.29670929    -0.75300
C317        C  0.88984586  0.54842343  0.25078850     0.85500
N318        N  0.90114817  0.53866036  0.20444756    -0.77000
C319        C  0.86422016  0.06863621  0.25122805     0.82900
N320        N  0.88369076  0.11195741  0.25112251    -0.75400
C321        C  0.85977340  0.13066346  0.25124494     0.85400
N322        N  0.81648298  0.10608692  0.25129979    -0.75300
C323        C  0.79699892  0.06283253  0.25143829     0.85500
N324        N  0.82085053  0.04406833  0.25130419    -0.77000
C325        C  0.90778958  0.24127237  0.20306406     0.82900
N326        N  0.88933655  0.19810770  0.20383939    -0.75400
C327        C  0.88039297  0.17714744  0.25039188     0.85400
N328        N  0.88987543  0.19936228  0.29607127    -0.75300
C329        C  0.90834318  0.24254650  0.29508123     0.85500
N330        N  0.91731635  0.26334776  0.24862883    -0.77000
C331        C  0.93251226  0.29197879  0.37855135    -0.10600
C332        C  0.91972305  0.26691781  0.34266777    -0.12100
C333        C  0.63517875  0.97996384  0.37865924    -0.10600
C334        C  0.66028706  0.99120909  0.34291218    -0.12100
C335        C  0.94831444  0.49388988  0.37944161    -0.10600
C336        C  0.93665574  0.50716543  0.34390114    -0.12100
C337        C  0.93153660  0.28949357  0.11880363    -0.10600
C338        C  0.91864821  0.26435589  0.15456774    -0.12100
C339        C  0.94765366  0.49422705  0.12059506    -0.10600
C340        C  0.93590074  0.50753321  0.15600403    -0.12100
C341        C  0.63780435  0.98140948  0.11910469    -0.10600
C342        C  0.66286247  0.99259810  0.15485928    -0.12100
C343        C  0.84772408  0.35195011  0.65485973    -0.10600
C344        C  0.87278253  0.36313782  0.61910489    -0.12100
C345        C  0.85030232  0.35336687  0.84291245    -0.10600
C346        C  0.87541161  0.36461465  0.87865892    -0.12100
C347        C  0.56295038  0.35034812  0.62058984    -0.10600
C348        C  0.57470114  0.33704043  0.65599882    -0.12100
C349        C  0.57391689  0.33738374  0.84389611    -0.10600
C350        C  0.56225866  0.35065950  0.87943664    -0.12100
C351        C  0.57903686  0.05506777  0.61880847    -0.10600
C352        C  0.59192543  0.08020476  0.65457416    -0.12100
C353        C  0.59087873  0.07764533  0.84267427    -0.10600
C354        C  0.57809144  0.05258490  0.87855678    -0.12100
C355        C  0.60225221  0.60201669  0.79508662     0.82900
N356        N  0.59327037  0.58121369  0.74863521    -0.75400
C357        C  0.60278952  0.60328889  0.70306974     0.85400
N358        N  0.62124206  0.64645258  0.70384721    -0.75300
C359        C  0.63019431  0.66741465  0.75039874     0.85500
N360        N  0.62071980  0.64519993  0.79607866    -0.77000
C361        C  0.58580121  0.82548806  0.79616220     0.82900
N362        N  0.60903010  0.80606303  0.79670555    -0.75400
C363        C  0.62074132  0.79613737  0.75078501     0.84600
N364        N  0.60944717  0.80590771  0.70444403    -0.75300
C365        C  0.58621815  0.82533362  0.70415964     0.85500
N366        N  0.57458260  0.83512724  0.74995904    -0.77000
C367        C  0.64636677  0.77592461  0.75122747     0.82900
N368        N  0.68973656  0.80049296  0.75130408    -0.75400
C369        C  0.71358806  0.78172838  0.75144280     0.85400
N370        N  0.69410422  0.73847453  0.75130790    -0.75300
C371        C  0.65081348  0.71389737  0.75125273     0.85500
N372        N  0.62689642  0.73260407  0.75112557    -0.77000
C373        C  0.82589434  0.84188911  0.79535116     0.82900
N374        N  0.78248707  0.81923802  0.79633309    -0.75400
C375        C  0.76016392  0.80780740  0.75064235     0.85400
N376        N  0.78124801  0.81855220  0.70410275    -0.75300
C377        C  0.82462903  0.84119145  0.70333578     0.85500
N378        N  0.84679628  0.85268338  0.74890410    -0.77000
Zn379      Zn  0.97961397  0.95516451  0.97614737     1.49700
Zn380      Zn  0.56490360  0.94931789  0.97525003     1.49400
Zn381      Zn  0.50556940  0.92204624  0.07633048     1.49100
Zn382      Zn  0.97163517  0.86285341  0.97510232     1.49500
O383        O  0.50544892  0.92232344  0.00029497    -1.81400
O384        O  0.02111922  0.00465274  0.93102221    -0.72100
O385        O  0.60754944  0.96849347  0.03506087    -0.71900
O386        O  0.97970015  0.95446056  0.10569350    -0.71400
O387        O  0.57989075  0.50047484  0.92965900    -0.72100
O388        O  0.96120038  0.97824973  0.03640510    -0.71700
O389        O  0.56493177  0.94860674  0.10473649    -0.72300
O390        O  0.94751852  0.82004187  0.03481741    -0.71600
O391        O  0.57228223  0.90808551  0.93042279    -0.72400
O392        O  0.97229397  0.86251829  0.10457395    -0.71800
O393        O  0.50800678  0.84851382  0.93010273    -0.72300
O394        O  0.92273384  0.85489503  0.92971290    -0.72200
O395        O  0.92810314  0.91853774  0.93079990    -0.72000
C396        C  0.55910992  0.51806250  0.91555324     0.79800
C397        C  0.60190083  0.96549505  0.08439358     0.80300
C398        C  0.96359312  0.97486366  0.08568426     0.79300
C399        C  0.95118822  0.82555703  0.08415890     0.79700
C400        C  0.54695854  0.86972941  0.91574506     0.80800
C401        C  0.90993853  0.87986226  0.91550149     0.79800
Zn402      Zn  0.50501943  0.92251529  0.57633053     1.49700
Zn403      Zn  0.53894706  0.98171066  0.47510416     1.49400
Zn404      Zn  0.53098240  0.88940519  0.47614558     1.49100
Zn405      Zn  0.94568550  0.89523833  0.47525014     1.49500
O406        O  0.50514032  0.92223958  0.50029492    -1.81400
O407        O  0.53828727  0.98204318  0.60457586    -0.72100
O408        O  0.58785177  0.48967716  0.42971436    -0.71900
O409        O  0.54940146  0.86632428  0.53640128    -0.71400
O410        O  0.56305805  0.52452138  0.53482126    -0.72100
O411        O  0.53089680  0.89010812  0.60569114    -0.71700
O412        O  0.58249155  0.92603810  0.43079973    -0.72300
O413        O  0.93070596  0.84408380  0.42965703    -0.71600
O414        O  0.00256998  0.99604350  0.43010625    -0.72400
O415        O  0.48948253  0.83991510  0.43101721    -0.71800
O416        O  0.93829982  0.93646623  0.43042480    -0.72300
O417        O  0.90303888  0.87605701  0.53506156    -0.72200
O418        O  0.94565605  0.89594694  0.60473683    -0.72000
C419        C  0.55938876  0.51900506  0.58416268     0.79800
C420        C  0.60065183  0.96471327  0.41550228     0.80300
C421        C  0.54700821  0.86970924  0.58568058     0.79300
C422        C  0.95149085  0.82650083  0.41554864     0.79700
C423        C  0.96361871  0.97482343  0.41574833     0.80800
C424        C  0.90868686  0.87905504  0.58439419     0.79800
C425        C  0.68595757  0.50336233  0.20333483     0.82900
N426        N  0.72933899  0.52600173  0.20410061    -0.75400
C427        C  0.75042314  0.53675345  0.25063942     0.85400
N428        N  0.72810131  0.52533104  0.29633075    -0.75300
C429        C  0.68469363  0.50267958  0.29535003     0.85500
N430        N  0.66379127  0.49187806  0.24890381    -0.77000
C431        C  0.92437653  0.01923387  0.20416498     0.82900
N432        N  0.93600342  0.00943299  0.24996426    -0.75400
C433        C  0.92477674  0.01906501  0.29616782     0.85400
N434        N  0.90154781  0.03849005  0.29670933    -0.75300
C435        C  0.88984586  0.04842369  0.25078860     0.85500
N436        N  0.90114821  0.03866022  0.20444754    -0.77000
C437        C  0.86422037  0.56863677  0.25122799     0.82900
N438        N  0.88369075  0.61195730  0.25112248    -0.75400
C439        C  0.85977387  0.63066433  0.25124491     0.85400
N440        N  0.81648285  0.60608683  0.25129972    -0.75300
C441        C  0.79699931  0.56283317  0.25143823     0.85500
N442        N  0.82085030  0.54406809  0.25130419    -0.77000
C443        C  0.90778921  0.74127166  0.20306416     0.82900
N444        N  0.88933672  0.69810808  0.20383944    -0.75400
C445        C  0.88039258  0.67714656  0.25039182     0.85400
N446        N  0.88987552  0.69936249  0.29607142    -0.75300
C447        C  0.90834284  0.74254560  0.29508125     0.85500
N448        N  0.91731649  0.76334811  0.24862909    -0.77000
C449        C  0.93251236  0.79197870  0.37855109    -0.10600
C450        C  0.91972322  0.76691809  0.34266788    -0.12100
C451        C  0.63517875  0.47996384  0.37865931    -0.10600
C452        C  0.66028717  0.49120918  0.34291209    -0.12100
C453        C  0.94831447  0.99388984  0.37944174    -0.10600
C454        C  0.93665595  0.00716544  0.34390134    -0.12100
C455        C  0.93153650  0.78949348  0.11880354    -0.10600
C456        C  0.91864836  0.76435604  0.15456747    -0.12100
C457        C  0.94765376  0.99422716  0.12059519    -0.10600
C458        C  0.93590074  0.00753313  0.15600391    -0.12100
C459        C  0.63780428  0.48140935  0.11910466    -0.10600
C460        C  0.66286260  0.49259820  0.15485935    -0.12100
C461        C  0.84772423  0.85195035  0.65485967    -0.10600
C462        C  0.87278276  0.86313783  0.61910508    -0.12100
C463        C  0.85030243  0.85336698  0.84291255    -0.10600
C464        C  0.87541165  0.86461474  0.87865888    -0.12100
C465        C  0.56295027  0.85034804  0.62058992    -0.10600
C466        C  0.57470106  0.83704034  0.65599880    -0.12100
C467        C  0.57391693  0.83738372  0.84389600    -0.10600
C468        C  0.56225854  0.85065933  0.87943664    -0.12100
C469        C  0.57903664  0.55506766  0.61880850    -0.10600
C470        C  0.59192536  0.58020471  0.65457403    -0.12100
C471        C  0.59087849  0.57764531  0.84267426    -0.10600
C472        C  0.57809149  0.55258495  0.87855689    -0.12100
loop_ 
_geom_bond_atom_site_label_1 
_geom_bond_atom_site_label_2 
_geom_bond_distance 
_geom_bond_site_symmetry_2 
_ccdc_geom_bond_type 
C1            N2   1.355       .  A
C1            N6   1.357       .  A
C1          C117   1.435       .  S
N2            C3   1.355       .  A
C3            N4   1.356       .  A
C3          C116   1.434       .  S
N4            C5   1.359       .  A
C5            N6   1.360       .  A
C5           C17   1.458       .  S
C7            N8   1.357       .  A
C7           N12   1.354       .  A
C7          C113   1.434       .  S
N8            C9   1.360       .  A
C9           N10   1.360       .  A
C9           C13   1.460       .  S
N10          C11   1.357       .  A
C11          N12   1.354       .  A
C11         C112   1.435       .  S
C13          N14   1.358       .  A
C13          N18   1.358       .  A
N14          C15   1.357       .  A
C15          N16   1.356       .  A
C15          C21   1.458       .  S
N16          C17   1.356       .  A
C17          N18   1.358       .  A
C19          N20   1.357       .  A
C19          N24   1.354       .  A
C19         C109   1.435       .  S
N20          C21   1.360       .  A
C21          N22   1.359       .  A
N22          C23   1.356       .  A
C23          N24   1.355       .  A
C23         C107   1.434       .  S
Zn25         O30   2.015       .  S
Zn25         O34   2.029   1_556  S
Zn25         O41   2.017       .  S
Zn25        O265   1.968   1_556  S
Zn26         O31   2.030   1_556  S
Zn26         O37   2.016       .  S
Zn26        O151   2.021       .  S
Zn26         O29   1.970   1_556  S
Zn27         O35   1.998       .  S
Zn27        O268   2.002   1_455  S
Zn27        O274   1.998   1_455  S
Zn27         O29   1.942       .  S
Zn28         O36   2.030   1_556  S
Zn28         O40   2.020       .  S
Zn28        O275   2.019       .  S
Zn28        O265   1.970   1_556  S
O29        Zn261   1.968   1_454  S
O29        Zn264   1.970   1_454  S
O30         C396   1.272       .  A
O31          C43   1.272       .  A
O32        Zn263   2.002       .  S
O32          C44   1.270       .  A
O33        Zn144   2.021   1_545  S
O33          C42   1.273       .  A
O34          C44   1.272       .  A
O35          C43   1.270       .  A
O36          C45   1.272       .  A
O37          C46   1.272       .  A
O38        Zn263   1.998       .  S
O38          C45   1.270       .  A
O39        Zn264   2.019   1_455  S
O39          C46   1.272       .  A
O40          C47   1.272       .  A
O41          C47   1.272       .  A
C42         C118   1.435       .  S
C42         O384   1.272       .  A
C43         C223   1.433       .  S
C44         C103   1.434       .  S
C45         C101   1.433       .  S
C46         C114   1.434       .  S
C47         C110   1.435       .  S
Zn48         O53   1.998       .  S
Zn48         O57   2.002       .  S
Zn48        O300   1.998   1_455  S
Zn48         O52   1.942       .  S
Zn49        O172   2.020       .  S
Zn49        O174   2.030       .  S
Zn49        O296   2.019       .  S
Zn49         O52   1.970       .  S
Zn50         O55   2.029       .  S
Zn50         O58   2.017       .  S
Zn50         O61   2.015   1_455  S
Zn50         O52   1.968       .  S
Zn51         O59   2.021       .  S
Zn51         O62   2.016       .  S
Zn51         O63   2.030       .  S
Zn51        O288   1.970       .  S
O52        Zn287   1.970   1_455  S
O53         C183   1.270       .  A
O54        Zn167   2.020       .  S
O54         C184   1.272       .  A
O55          C67   1.272       .  A
O56        Zn167   2.030   1_545  S
O56          C65   1.272       .  A
O57          C67   1.270       .  A
O58          C66   1.272       .  A
O59          C68   1.273       .  A
O60        Zn285   2.019       .  S
O60          C69   1.272       .  A
O61         C304   1.272       .  A
O62          C69   1.272       .  A
O63          C70   1.272       .  A
O64        Zn284   1.998       .  S
O64          C70   1.270       .  A
C65         C115   1.433       .  S
C65         O171   1.270   1_545  A
C66         C215   1.435       .  S
C66         O172   1.272       .  A
C67         C111   1.434       .  S
C68          C95   1.435       .  S
C68         O297   1.272       .  A
C69          C99   1.434       .  S
C70         C108   1.433       .  S
C71          N72   1.356       .  A
C71          N76   1.355   1_545  A
C71         C106   1.434   1_545  S
N72          C73   1.359       .  A
C73          N74   1.360       .  A
C73          C87   1.458       .  S
N74          C75   1.357       .  A
C75          N76   1.354   1_545  A
C75          C98   1.435   1_545  S
C77          N78   1.354       .  A
C77          N82   1.357       .  A
C77         C104   1.435       .  S
N78          C79   1.354       .  A
C79          N80   1.357       .  A
C79         C100   1.434       .  S
N80          C81   1.360       .  A
C81          N82   1.360       .  A
C81         C201   1.460       .  S
C83          N84   1.358       .  A
C83          N88   1.358       .  A
C83         C199   1.460       .  S
N84          C85   1.358       .  A
C85          N86   1.356       .  A
C85          C91   1.458       .  S
N86          C87   1.356       .  A
C87          N88   1.357       .  A
C89          N90   1.356       .  A
C89          N94   1.355       .  A
C89         C102   1.434       .  S
N90          C91   1.359       .  A
C91          N92   1.360       .  A
N92          C93   1.357       .  A
C93          N94   1.355       .  A
C93          C96   1.435       .  S
C95          C96   1.206       .  T
C97         C184   1.435       .  S
C97          C98   1.206       .  T
C99         C100   1.205       .  T
C101        C102   1.205       .  T
C103        C104   1.205       .  T
C105        C161   1.433       .  S
C105        C106   1.205       .  T
C107        C108   1.205       .  T
C109        C110   1.206       .  T
C111        C112   1.205       .  T
C113        C114   1.205       .  T
C115        C116   1.205       .  T
C117        C118   1.206       .  T
C119        N120   1.355       .  A
C119        N124   1.357       .  A
C119        C235   1.435       .  S
N120        C121   1.355       .  A
C121        N122   1.356       .  A
C121        C234   1.434       .  S
N122        C123   1.359       .  A
C123        N124   1.360       .  A
C123        C135   1.458       .  S
C125        N126   1.357       .  A
C125        N130   1.354       .  A
C125        C231   1.434       .  S
N126        C127   1.360       .  A
C127        N128   1.360       .  A
C127        C131   1.460       .  S
N128        C129   1.357       .  A
C129        N130   1.354       .  A
C129        C230   1.435       .  S
C131        N132   1.358       .  A
C131        N136   1.358       .  A
N132        C133   1.357       .  A
C133        N134   1.356       .  A
C133        C139   1.458       .  S
N134        C135   1.356       .  A
C135        N136   1.358       .  A
C137        N138   1.357       .  A
C137        N142   1.354       .  A
C137        C227   1.435       .  S
N138        C139   1.360       .  A
C139        N140   1.359       .  A
N140        C141   1.356       .  A
C141        N142   1.355       .  A
C141        C225   1.434       .  S
Zn143       O148   2.015   1_565  S
Zn143       O152   2.029   1_556  S
Zn143       O159   2.017       .  S
Zn143       O383   1.968   1_556  S
Zn144       O149   2.030   1_556  S
Zn144       O155   2.016       .  S
Zn144       O147   1.970   1_556  S
Zn145       O386   2.002   1_455  S
Zn145       O153   1.998       .  S
Zn145       O392   1.998   1_455  S
Zn145       O147   1.942       .  S
Zn146       O154   2.030   1_556  S
Zn146       O393   2.019       .  S
Zn146       O158   2.020       .  S
Zn146       O383   1.970   1_556  S
O147       Zn379   1.968   1_454  S
O147       Zn382   1.970   1_454  S
O148        C278   1.272       .  A
O149        C161   1.272       .  A
O150       Zn381   2.002       .  S
O150        C162   1.270       .  A
O151        C160   1.273       .  A
O152        C162   1.272       .  A
O153        C161   1.270       .  A
O154        C163   1.272       .  A
O155        C164   1.272       .  A
O156       Zn381   1.998       .  S
O156        C163   1.270       .  A
O157       Zn382   2.019   1_455  S
O157        C164   1.272       .  A
O158        C165   1.272       .  A
O159        C165   1.272       .  A
C160        C236   1.435       .  S
C160        O266   1.272       .  A
C162        C221   1.434       .  S
C163        C219   1.433       .  S
C164        C232   1.434       .  S
C165        C228   1.435       .  S
Zn166       O171   1.998       .  S
Zn166       O175   2.002       .  S
Zn166       O418   1.998   1_455  S
Zn166       O170   1.942       .  S
Zn167       O414   2.019       .  S
Zn167       O170   1.970       .  S
Zn168       O173   2.029       .  S
Zn168       O176   2.017       .  S
Zn168       O179   2.015   1_455  S
Zn168       O170   1.968       .  S
Zn169       O177   2.021       .  S
Zn169       O180   2.016       .  S
Zn169       O181   2.030       .  S
Zn169       O406   1.970       .  S
O170       Zn405   1.970   1_455  S
O173        C185   1.272       .  A
O174        C183   1.272       .  A
O175        C185   1.270       .  A
O176        C184   1.272       .  A
O177        C186   1.273       .  A
O178       Zn403   2.019       .  S
O178        C187   1.272       .  A
O179        C422   1.272       .  A
O180        C187   1.272       .  A
O181        C188   1.272       .  A
O182       Zn402   1.998       .  S
O182        C188   1.270       .  A
C183        C233   1.433       .  S
C185        C229   1.434       .  S
C186        C213   1.435       .  S
C186        O415   1.272       .  A
C187        C217   1.434       .  S
C188        C226   1.433       .  S
C189        N190   1.356       .  A
C189        N194   1.355       .  A
C189        C224   1.434       .  S
N190        C191   1.359       .  A
C191        N192   1.360       .  A
C191        C205   1.458       .  S
N192        C193   1.357       .  A
C193        N194   1.354       .  A
C193        C216   1.435       .  S
C195        N196   1.354       .  A
C195        N200   1.357       .  A
C195        C222   1.435       .  S
N196        C197   1.354       .  A
C197        N198   1.357       .  A
C197        C218   1.434       .  S
N198        C199   1.360       .  A
C199        N200   1.360       .  A
C201        N202   1.358       .  A
C201        N206   1.358       .  A
N202        C203   1.358       .  A
C203        N204   1.356       .  A
C203        C209   1.458       .  S
N204        C205   1.356       .  A
C205        N206   1.357       .  A
C207        N208   1.356       .  A
C207        N212   1.355       .  A
C207        C220   1.434       .  S
N208        C209   1.359       .  A
C209        N210   1.360       .  A
N210        C211   1.357       .  A
C211        N212   1.355       .  A
C211        C214   1.435       .  S
C213        C214   1.206       .  T
C215        C216   1.206       .  T
C217        C218   1.205   1_565  T
C219        C220   1.205       .  T
C221        C222   1.205   1_565  T
C223        C224   1.205       .  T
C225        C226   1.205       .  T
C227        C228   1.206       .  T
C229        C230   1.205       .  T
C231        C232   1.205       .  T
C233        C234   1.205       .  T
C235        C236   1.206       .  T
C237        N238   1.355       .  A
C237        N242   1.357       .  A
C237        C353   1.435       .  S
N238        C239   1.355       .  A
C239        N240   1.356       .  A
C239        C352   1.434       .  S
N240        C241   1.359       .  A
C241        N242   1.360       .  A
C241        C253   1.458       .  S
C243        N244   1.357       .  A
C243        N248   1.354       .  A
C243        C349   1.434       .  S
N244        C245   1.360       .  A
C245        N246   1.360       .  A
C245        C249   1.460       .  S
N246        C247   1.357       .  A
C247        N248   1.354       .  A
C247        C348   1.435       .  S
C249        N250   1.358       .  A
C249        N254   1.358       .  A
N250        C251   1.357       .  A
C251        N252   1.356       .  A
C251        C257   1.458       .  S
N252        C253   1.356       .  A
C253        N254   1.358       .  A
C255        N256   1.357       .  A
C255        N260   1.354       .  A
C255        C345   1.435       .  S
N256        C257   1.360       .  A
C257        N258   1.359       .  A
N258        C259   1.356       .  A
C259        N260   1.355       .  A
C259        C343   1.434       .  S
Zn261       O266   2.015   1_655  S
Zn261       O270   2.029   1_556  S
Zn261       O277   2.017       .  S
Zn262       O267   2.030   1_556  S
Zn262       O387   2.021       .  S
Zn262       O273   2.016       .  S
Zn262       O265   1.970   1_556  S
Zn263       O271   1.998       .  S
Zn263       O265   1.942       .  S
Zn264       O272   2.030   1_556  S
Zn264       O276   2.020       .  S
O267        C279   1.272       .  A
O268        C280   1.270       .  A
O269       Zn380   2.021   1_545  S
O269        C278   1.273       .  A
O270        C280   1.272       .  A
O271        C279   1.270       .  A
O272        C281   1.272       .  A
O273        C282   1.272       .  A
O274        C281   1.270       .  A
O275        C282   1.272       .  A
O276        C283   1.272       .  A
O277        C283   1.272       .  A
C278        C354   1.435       .  S
C279        C459   1.433       .  S
C280        C339   1.434       .  S
C281        C337   1.433       .  S
C282        C350   1.434       .  S
C283        C346   1.435       .  S
Zn284       O289   1.998       .  S
Zn284       O293   2.002       .  S
Zn284       O288   1.942       .  S
Zn285       O408   2.020       .  S
Zn285       O410   2.030       .  S
Zn285       O288   1.970       .  S
Zn286       O291   2.029       .  S
Zn286       O294   2.017       .  S
Zn286       O297   2.015       .  S
Zn286       O288   1.968       .  S
Zn287       O295   2.021       .  S
Zn287       O298   2.016       .  S
Zn287       O299   2.030       .  S
O289        C419   1.270       .  A
O290       Zn403   2.020       .  S
O290        C420   1.272       .  A
O291        C303   1.272       .  A
O292       Zn403   2.030   1_545  S
O292        C301   1.272       .  A
O293        C303   1.270       .  A
O294        C302   1.272       .  A
O295        C304   1.273       .  A
O296        C305   1.272   1_455  A
O298        C305   1.272       .  A
O299        C306   1.272       .  A
O300        C306   1.270       .  A
C301        C351   1.433       .  S
C301        O407   1.270   1_545  A
C302        C451   1.435       .  S
C302        O408   1.272       .  A
C303        C347   1.434       .  S
C304        C331   1.435       .  S
C305        C335   1.434       .  S
C306        C344   1.433       .  S
C307        N308   1.356       .  A
C307        N312   1.355   1_545  A
C307        C342   1.434   1_545  S
N308        C309   1.359       .  A
C309        N310   1.360       .  A
C309        C323   1.458       .  S
N310        C311   1.357       .  A
C311        N312   1.354   1_545  A
C311        C334   1.435   1_545  S
C313        N314   1.354       .  A
C313        N318   1.357       .  A
C313        C340   1.435       .  S
N314        C315   1.354       .  A
C315        N316   1.357       .  A
C315        C336   1.434       .  S
N316        C317   1.360       .  A
C317        N318   1.360       .  A
C317        C437   1.460       .  S
C319        N320   1.358       .  A
C319        N324   1.358       .  A
C319        C435   1.460       .  S
N320        C321   1.358       .  A
C321        N322   1.356       .  A
C321        C327   1.458       .  S
N322        C323   1.356       .  A
C323        N324   1.357       .  A
C325        N326   1.356       .  A
C325        N330   1.355       .  A
C325        C338   1.434       .  S
N326        C327   1.359       .  A
C327        N328   1.360       .  A
N328        C329   1.357       .  A
C329        N330   1.355       .  A
C329        C332   1.435       .  S
C331        C332   1.206       .  T
C333        C420   1.435       .  S
C333        C334   1.206       .  T
C335        C336   1.205       .  T
C337        C338   1.205       .  T
C339        C340   1.205       .  T
C341        C397   1.433       .  S
C341        C342   1.205       .  T
C343        C344   1.205       .  T
C345        C346   1.206       .  T
C347        C348   1.205       .  T
C349        C350   1.205       .  T
C351        C352   1.205       .  T
C353        C354   1.206       .  T
C355        N356   1.355       .  A
C355        N360   1.357       .  A
C355        C471   1.435       .  S
N356        C357   1.355       .  A
C357        N358   1.356       .  A
C357        C470   1.434       .  S
N358        C359   1.359       .  A
C359        N360   1.360       .  A
C359        C371   1.458       .  S
C361        N362   1.357       .  A
C361        N366   1.354       .  A
C361        C467   1.434       .  S
N362        C363   1.360       .  A
C363        N364   1.360       .  A
C363        C367   1.460       .  S
N364        C365   1.357       .  A
C365        N366   1.354       .  A
C365        C466   1.435       .  S
C367        N368   1.358       .  A
C367        N372   1.358       .  A
N368        C369   1.357       .  A
C369        N370   1.356       .  A
C369        C375   1.458       .  S
N370        C371   1.356       .  A
C371        N372   1.358       .  A
C373        N374   1.357       .  A
C373        N378   1.354       .  A
C373        C463   1.435       .  S
N374        C375   1.360       .  A
C375        N376   1.359       .  A
N376        C377   1.356       .  A
C377        N378   1.355       .  A
C377        C461   1.434       .  S
Zn379       O384   2.015   1_665  S
Zn379       O388   2.029   1_556  S
Zn379       O395   2.017       .  S
Zn380       O385   2.030   1_556  S
Zn380       O391   2.016       .  S
Zn380       O383   1.970   1_556  S
Zn381       O389   1.998       .  S
Zn381       O383   1.942       .  S
Zn382       O390   2.030   1_556  S
Zn382       O394   2.020       .  S
O385        C397   1.272       .  A
O386        C398   1.270       .  A
O387        C396   1.273       .  A
O388        C398   1.272       .  A
O389        C397   1.270       .  A
O390        C399   1.272       .  A
O391        C400   1.272       .  A
O392        C399   1.270       .  A
O393        C400   1.272       .  A
O394        C401   1.272       .  A
O395        C401   1.272       .  A
C396        C472   1.435       .  S
C398        C457   1.434       .  S
C399        C455   1.433       .  S
C400        C468   1.434       .  S
C401        C464   1.435       .  S
Zn402       O407   1.998       .  S
Zn402       O411   2.002       .  S
Zn402       O406   1.942       .  S
Zn403       O406   1.970       .  S
Zn404       O409   2.029       .  S
Zn404       O412   2.017       .  S
Zn404       O415   2.015       .  S
Zn404       O406   1.968       .  S
Zn405       O413   2.021       .  S
Zn405       O416   2.016       .  S
Zn405       O417   2.030       .  S
O409        C421   1.272       .  A
O410        C419   1.272       .  A
O411        C421   1.270       .  A
O412        C420   1.272       .  A
O413        C422   1.273       .  A
O414        C423   1.272   1_455  A
O416        C423   1.272       .  A
O417        C424   1.272       .  A
O418        C424   1.270       .  A
C419        C469   1.433       .  S
C421        C465   1.434       .  S
C422        C449   1.435       .  S
C423        C453   1.434       .  S
C424        C462   1.433       .  S
C425        N426   1.356       .  A
C425        N430   1.355       .  A
C425        C460   1.434       .  S
N426        C427   1.359       .  A
C427        N428   1.360       .  A
C427        C441   1.458       .  S
N428        C429   1.357       .  A
C429        N430   1.354       .  A
C429        C452   1.435       .  S
C431        N432   1.354       .  A
C431        N436   1.357       .  A
C431        C458   1.435       .  S
N432        C433   1.354       .  A
C433        N434   1.357       .  A
C433        C454   1.434       .  S
N434        C435   1.360       .  A
C435        N436   1.360       .  A
C437        N438   1.358       .  A
C437        N442   1.358       .  A
N438        C439   1.358       .  A
C439        N440   1.356       .  A
C439        C445   1.458       .  S
N440        C441   1.356       .  A
C441        N442   1.357       .  A
C443        N444   1.356       .  A
C443        N448   1.355       .  A
C443        C456   1.434       .  S
N444        C445   1.359       .  A
C445        N446   1.360       .  A
N446        C447   1.357       .  A
C447        N448   1.355       .  A
C447        C450   1.435       .  S
C449        C450   1.206       .  T
C451        C452   1.206       .  T
C453        C454   1.205   1_565  T
C455        C456   1.205       .  T
C457        C458   1.205   1_565  T
C459        C460   1.205       .  T
C461        C462   1.205       .  T
C463        C464   1.206       .  T
C465        C466   1.205       .  T
C467        C468   1.205       .  T
C469        C470   1.205       .  T
C471        C472   1.206       .  T
