geometry optimzed in LAMMPS
_audit_creation_date              2020-11-30 
_audit_creation_method            'lammps2cif' 
_symmetry_space_group_name_H-M    'P1' 
_symmetry_Int_Tables_number       1 
_symmetry_cell_setting            triclinic 
loop_ 
_symmetry_equiv_pos_as_xyz 
  x,y,z 
_cell_length_a                    39.88138031724116 
_cell_length_b                    39.87717180253675 
_cell_length_c                    32.44050262485286 
_cell_angle_alpha                 90.11019599484327 
_cell_angle_beta                  90.21609557645566 
_cell_angle_gamma                 64.83226546375172 
loop_ 
_atom_site_label 
_atom_site_type_symbol 
_atom_site_fract_x 
_atom_site_fract_y 
_atom_site_fract_z 
_atom_site_charge 
O1          O  0.09685964  0.29946092  0.08291457    -0.75000
O2          O  0.09419482  0.01501699  0.04423568    -0.53910
C3          C  0.10863551  0.32368799  0.07245706     0.78730
O4          O  0.02696312  0.23486123  0.41504594    -0.59600
O5          O  0.31276017  0.23675279  0.45544293    -0.52630
C6          C  0.33627338  0.22301630  0.42612870     0.70740
O7          O  0.09649778  0.29912290  0.41713914    -0.74160
O8          O  0.09407488  0.01470505  0.45581858    -0.54720
C9          C  0.10833996  0.32335399  0.42759221     0.76750
O10         O  0.02741865  0.23506537  0.08522105    -0.59300
O11         O  0.31294866  0.23696246  0.04483754    -0.52420
C12         C  0.33666039  0.22321864  0.07413033     0.73340
Zr13       Zr  0.04815063  0.28128609  0.06175318     2.54710
O14         O  0.10408977  0.22350015  0.05945500    -0.79870
O15         O  0.04745531  0.28264595  0.13683973    -0.93290
Zr16       Zr  0.04814234  0.28083009  0.43870855     2.64680
O17         O  0.10439135  0.22330688  0.44172011    -0.98240
O18         O  0.04837261  0.28143313  0.36365186    -0.80300
O19         O  0.06824100  0.29925327  0.50021402    -0.83660
O20         O  0.02999962  0.26106728  0.50025930    -2.18370
O21         O  0.24272301  0.02032842  0.08488793    -0.67050
O22         O  0.24447868  0.30599470  0.04441843    -0.51610
C23         C  0.23084147  0.99625964  0.07369848     0.71720
O24         O  0.30861695  0.08806747  0.41617971    -0.59960
O25         O  0.02428897  0.08510406  0.45524735    -0.51930
C26         C  0.99987770  0.09944563  0.42669820     0.73520
O27         O  0.24241130  0.01991367  0.41481888    -0.71350
O28         O  0.24432708  0.30572281  0.45542802    -0.50030
C29         C  0.23054720  0.99591181  0.42608739     0.74910
O30         O  0.30913476  0.08820794  0.08359244    -0.66680
O31         O  0.02448287  0.08531273  0.04443221    -0.53880
C32         C  0.00030194  0.09961670  0.07305387     0.73290
Zr33       Zr  0.28906630  0.04104647  0.06116865     2.77540
O34         O  0.23229507  0.09796654  0.05657891    -0.97430
O35         O  0.28864346  0.04260601  0.13618018    -0.78250
Zr36       Zr  0.28907188  0.04054161  0.43820285     2.70070
O37         O  0.23171758  0.09690956  0.44145583    -0.79500
O38         O  0.29033425  0.04115653  0.36316440    -0.98580
Zr39       Zr  0.04038208  0.03185553  0.49996324     2.21500
Zr40       Zr  0.29743021  0.28991858  0.99999097     2.11130
O41         O  0.26903511  0.02260682  0.99970736    -2.47270
O42         O  0.30772738  0.06057654  0.99966480    -0.79290
O43         O  0.31588351  0.30871921  0.06234926    -0.71490
O44         O  0.02137683  0.01310005  0.43772744    -2.32440
O45         O  0.02139865  0.01355911  0.06226976    -2.28650
O46         O  0.31586097  0.30821230  0.43752944    -0.73250
H47         H  0.03927124  0.23440181  0.50040248     0.78750
H48         H  0.03004948  0.02153030  0.41388775     0.79840
H49         H  0.24235584  0.03205977  0.99957568     0.82060
H50         H  0.03012365  0.02208966  0.08611099     0.79670
H51         H  0.03756759  0.30801397  0.35614115     0.42710
H52         H  0.29462109  0.01573744  0.35489495     0.41680
H53         H  0.23573448  0.11139171  0.46421341     0.41350
H54         H  0.21416075  0.09062594  0.04299427     0.39290
H55         H  0.30253783  0.01637675  0.14447376     0.42420
H56         H  0.04540183  0.30753852  0.14427843     0.37200
H57         H  0.11687122  0.22534998  0.03404344     0.43320
H58         H  0.09711343  0.20564138  0.45628977     0.39730
H59         H  0.22357564  0.10343871  0.08540953     0.44650
H60         H  0.07292832  0.26545076  0.14510646     0.43380
H61         H  0.10853366  0.21433279  0.41287669     0.43510
H62         H  0.26442218  0.05683235  0.35486181     0.43870
C63         C  0.00313692  0.16044180  0.16119338     0.03420
C64         C  0.00397440  0.19059391  0.13978818    -0.12730
C65         C  0.00302000  0.19134291  0.09654967     0.00920
C66         C  0.00172010  0.16147904  0.07475201    -0.11250
C67         C  0.00101476  0.13116656  0.09594710     0.03410
C68         C  0.00142124  0.13090454  0.13918863    -0.10670
H69         H  0.00495426  0.21359362  0.15679898     0.09010
H70         H  0.00128086  0.16181278  0.04133205     0.06540
H71         H  0.00072887  0.10760916  0.15572976     0.06380
C72         C  0.00216364  0.16046012  0.33882311     0.03420
C73         C  0.00319578  0.19052377  0.36038036    -0.12730
C74         C  0.00243442  0.19120560  0.40360560     0.00920
C75         C  0.00117080  0.16133568  0.42525646    -0.11250
C76         C  0.00040707  0.13104338  0.40391397     0.03410
C77         C  0.00068283  0.13081604  0.36066218    -0.10670
H78         H  0.00417035  0.21352298  0.34348107     0.09010
H79         H  0.00086983  0.16161679  0.45867640     0.06540
H80         H  0.00005890  0.10749212  0.34399764     0.06380
C81         C  0.17147120  0.32231440  0.16066467     0.03420
C82         C  0.14211297  0.32037749  0.13827636    -0.12730
C83         C  0.14065439  0.32358525  0.09520824     0.00920
C84         C  0.16954560  0.32727075  0.07423111    -0.11250
C85         C  0.19940099  0.32849046  0.09613131     0.03410
C86         C  0.19985408  0.32687462  0.13930873    -0.10670
H87         H  0.11993642  0.31714214  0.15446443     0.09010
H88         H  0.16891593  0.32898050  0.04086461     0.06540
H89         H  0.22246880  0.32882323  0.15614549     0.06380
C90         C  0.17002195  0.32292819  0.33920129     0.03420
C91         C  0.14119874  0.32028580  0.36168371    -0.12730
C92         C  0.14016047  0.32330672  0.40477121     0.00920
C93         C  0.16921154  0.32698645  0.42569077    -0.11250
C94         C  0.19889267  0.32822502  0.40372655     0.03410
C95         C  0.19886753  0.32689929  0.36053418    -0.10670
H96         H  0.11914021  0.31657563  0.34563472     0.09010
H97         H  0.16888417  0.32858517  0.45906484     0.06540
H98         H  0.22152069  0.32849877  0.34359576     0.06380
C99         C  0.17140188  0.32122049  0.20637453    -0.05200
C100        C  0.13898698  0.34369282  0.22764220    -0.32600
C101        C  0.13799475  0.34416217  0.27073118     0.36650
C102        C  0.16990437  0.32189767  0.29347955    -0.05530
C103        C  0.20224703  0.29904684  0.27224245    -0.32500
C104        C  0.20319498  0.29857654  0.22905248     0.36550
H105        H  0.11445283  0.36161835  0.21073856     0.16920
O106        O  0.10640765  0.36813672  0.29031170    -0.60000
H107        H  0.22686620  0.28144053  0.28923488     0.16940
O108        O  0.23476149  0.27487721  0.20925812    -0.60100
H109        H  0.25329717  0.28491047  0.21432252     0.43930
H110        H  0.08801027  0.02447762  0.28591679     0.43890
C111        C  0.00327117  0.16015636  0.20665445    -0.05170
C112        C  0.30558903  0.18529809  0.22799831    -0.32600
C113        C  0.30488235  0.18535273  0.27111321     0.36650
C114        C  0.00227077  0.16024451  0.29337290    -0.05530
C115        C  0.03327404  0.13493938  0.27205909    -0.32500
C116        C  0.03390024  0.13479114  0.22888670     0.36550
H117        H  0.28172592  0.20450153  0.21108052     0.16920
O118        O  0.27399249  0.20980065  0.29131061    -0.60000
H119        H  0.05712504  0.11559411  0.28896264     0.16940
O120        O  0.06494272  0.11062964  0.20868248    -0.60100
H121        H  0.06079357  0.08810570  0.20404824     0.43930
H122        H  0.25808741  0.19650117  0.29483331     0.43890
O123        O  0.09685966  0.29946092  0.58291454    -0.75000
O124        O  0.09419483  0.01501699  0.54423567    -0.53910
C125        C  0.10863552  0.32368799  0.57245703     0.78730
O126        O  0.02696312  0.23486122  0.91504597    -0.59600
O127        O  0.31276016  0.23675279  0.95544293    -0.52630
C128        C  0.33627337  0.22301629  0.92612871     0.70740
O129        O  0.09649778  0.29912288  0.91713916    -0.74160
O130        O  0.09407486  0.01470506  0.95581860    -0.54720
C131        C  0.10833995  0.32335397  0.92759223     0.76750
O132        O  0.02741867  0.23506538  0.58522104    -0.59300
O133        O  0.31294868  0.23696246  0.54483754    -0.52420
C134        C  0.33666041  0.22321863  0.57413032     0.73340
Zr135      Zr  0.04815065  0.28128609  0.56175314     2.54710
O136        O  0.10408978  0.22350014  0.55945489    -0.79870
O137        O  0.04745538  0.28264590  0.63683969    -0.93290
Zr138      Zr  0.04814234  0.28083007  0.93870859     2.64680
O139        O  0.10439134  0.22330685  0.94172023    -0.98240
O140        O  0.04837267  0.28143306  0.86365190    -0.80300
O141        O  0.06824099  0.29925326  0.00021406    -0.83660
O142        O  0.02999961  0.26106727  0.00025934    -2.18370
O143        O  0.24272304  0.02032841  0.58488793    -0.67050
O144        O  0.24447869  0.30599470  0.54441842    -0.51610
C145        C  0.23084149  0.99625963  0.57369848     0.71720
O146        O  0.30861695  0.08806747  0.91617974    -0.59960
O147        O  0.02428897  0.08510405  0.95524740    -0.51930
C148        C  0.99987771  0.09944562  0.92669824     0.73520
O149        O  0.24241129  0.01991367  0.91481889    -0.71350
O150        O  0.24432707  0.30572281  0.95542803    -0.50030
C151        C  0.23054719  0.99591181  0.92608740     0.74910
O152        O  0.30913478  0.08820794  0.58359238    -0.66680
O153        O  0.02448288  0.08531274  0.54443215    -0.53880
C154        C  0.00030196  0.09961671  0.57305380     0.73290
Zr155      Zr  0.28906631  0.04104646  0.56116863     2.77540
O156        O  0.23229507  0.09796653  0.55657893    -0.97430
O157        O  0.28864351  0.04260600  0.63618016    -0.78250
Zr158      Zr  0.28907186  0.04054161  0.93820287     2.70070
O159        O  0.23171757  0.09690957  0.94145581    -0.79500
O160        O  0.29033426  0.04115652  0.86316442    -0.98580
Zr161      Zr  0.04038207  0.03185553  0.99996327     2.21500
Zr162      Zr  0.29743022  0.28991858  0.49999097     2.11130
O163        O  0.26903512  0.02260681  0.49970735    -2.47270
O164        O  0.30772740  0.06057653  0.49966477    -0.79290
O165        O  0.31588353  0.30871920  0.56234926    -0.71490
O166        O  0.02137682  0.01310005  0.93772747    -2.32440
O167        O  0.02139867  0.01355912  0.56226973    -2.28650
O168        O  0.31586097  0.30821228  0.93752945    -0.73250
H169        H  0.03927123  0.23440180  0.00040253     0.78750
H170        H  0.03004947  0.02153030  0.91388778     0.79840
H171        H  0.24235585  0.03205977  0.49957566     0.82060
H172        H  0.03012367  0.02208966  0.58611096     0.79670
H173        H  0.03756758  0.30801389  0.85614117     0.42710
H174        H  0.29462111  0.01573742  0.85489498     0.41680
H175        H  0.23573444  0.11139171  0.96421341     0.41350
H176        H  0.21416076  0.09062593  0.54299427     0.39290
H177        H  0.30253786  0.01637674  0.64447374     0.42420
H178        H  0.04540190  0.30753847  0.64427840     0.37200
H179        H  0.11687125  0.22535000  0.53404336     0.43320
H180        H  0.09711339  0.20564135  0.95628984     0.39730
H181        H  0.22357565  0.10343868  0.58540955     0.44650
H182        H  0.07292840  0.26545072  0.64510640     0.43380
H183        H  0.10853369  0.21433277  0.91287681     0.43510
H184        H  0.26442219  0.05683233  0.85486182     0.43870
C185        C  0.00313707  0.16044169  0.66119336     0.03420
C186        C  0.00397450  0.19059384  0.63978817    -0.12730
C187        C  0.00302003  0.19134290  0.59654965     0.00920
C188        C  0.00172010  0.16147905  0.57475198    -0.11250
C189        C  0.00101480  0.13116655  0.59594704     0.03410
C190        C  0.00142134  0.13090447  0.63918857    -0.10670
H191        H  0.00495438  0.21359353  0.65679898     0.09010
H192        H  0.00128081  0.16181282  0.54133202     0.06540
H193        H  0.00072897  0.10760908  0.65572967     0.06380
C194        C  0.00216379  0.16046001  0.83882314     0.03420
C195        C  0.00319589  0.19052369  0.86038039    -0.12730
C196        C  0.00243445  0.19120557  0.90360563     0.00920
C197        C  0.00117078  0.16133567  0.92525649    -0.11250
C198        C  0.00040711  0.13104334  0.90391401     0.03410
C199        C  0.00068297  0.13081595  0.86066222    -0.10670
H200        H  0.00417049  0.21352288  0.84348110     0.09010
H201        H  0.00086975  0.16161681  0.95867643     0.06540
H202        H  0.00005908  0.10749200  0.84399771     0.06380
C203        C  0.17147118  0.32231442  0.66066466     0.03420
C204        C  0.14211297  0.32037749  0.63827634    -0.12730
C205        C  0.14065440  0.32358525  0.59520821     0.00920
C206        C  0.16954562  0.32727074  0.57423109    -0.11250
C207        C  0.19940100  0.32849046  0.59613130     0.03410
C208        C  0.19985407  0.32687464  0.63930872    -0.10670
H209        H  0.11993641  0.31714214  0.65446440     0.09010
H210        H  0.16891596  0.32898047  0.54086459     0.06540
H211        H  0.22246878  0.32882328  0.65614548     0.06380
C212        C  0.17002191  0.32292822  0.83920130     0.03420
C213        C  0.14119871  0.32028581  0.86168372    -0.12730
C214        C  0.14016045  0.32330671  0.90477123     0.00920
C215        C  0.16921153  0.32698643  0.92569078    -0.11250
C216        C  0.19889265  0.32822501  0.90372656     0.03410
C217        C  0.19886749  0.32689931  0.86053419    -0.10670
H218        H  0.11914018  0.31657563  0.84563474     0.09010
H219        H  0.16888417  0.32858513  0.95906486     0.06540
H220        H  0.22152065  0.32849882  0.84359577     0.06380
C221        C  0.17140185  0.32122052  0.70637452    -0.05200
C222        C  0.13898692  0.34369277  0.72764219    -0.32600
C223        C  0.13799468  0.34416212  0.77073118     0.36650
C224        C  0.16990433  0.32189771  0.79347956    -0.05530
C225        C  0.20224701  0.29904695  0.77224245    -0.32500
C226        C  0.20319497  0.29857666  0.72905249     0.36550
H227        H  0.11445275  0.36161825  0.71073855     0.16920
O228        O  0.10640755  0.36813661  0.79031169    -0.60000
H229        H  0.22686621  0.28144073  0.78923489     0.16940
O230        O  0.23476153  0.27487740  0.70925814    -0.60100
H231        H  0.25329716  0.28491071  0.71432259     0.43930
H232        H  0.08801029  0.02447755  0.78591674     0.43890
C233        C  0.00327135  0.16015622  0.70665444    -0.05170
C234        C  0.30558962  0.18529865  0.72799831    -0.32600
C235        C  0.30488293  0.18535330  0.77111321     0.36650
C236        C  0.00227094  0.16024438  0.79337291    -0.05530
C237        C  0.03327374  0.13493848  0.77205909    -0.32500
C238        C  0.03389993  0.13479022  0.72888669     0.36550
H239        H  0.28172682  0.20450260  0.71108053     0.16920
O240        O  0.27399342  0.20980187  0.79131060    -0.60000
H241        H  0.05712439  0.11559262  0.78896262     0.16940
O242        O  0.06494200  0.11062793  0.70868247    -0.60100
H243        H  0.06079214  0.08810432  0.70404874     0.43930
H244        H  0.25808771  0.19650306  0.79483333     0.43890
O245        O  0.09685967  0.63279425  0.08291458    -0.75000
O246        O  0.09419479  0.34835033  0.04423567    -0.53910
C247        C  0.10863554  0.65702131  0.07245708     0.78730
O248        O  0.02696313  0.56819458  0.41504595    -0.59600
O249        O  0.31276019  0.57008613  0.45544293    -0.52630
C250        C  0.33627340  0.55634965  0.42612870     0.70740
O251        O  0.09649780  0.63245625  0.41713916    -0.74160
O252        O  0.09407485  0.34803841  0.45581857    -0.54720
C253        C  0.10833998  0.65668733  0.42759223     0.76750
O254        O  0.02741868  0.56839870  0.08522105    -0.59300
O255        O  0.31294870  0.57029577  0.04483753    -0.52420
C256        C  0.33666043  0.55655195  0.07413032     0.73340
Zr257      Zr  0.04815066  0.61461942  0.06175319     2.54710
O258        O  0.10408979  0.55683348  0.05945501    -0.79870
O259        O  0.04745532  0.61597928  0.13683973    -0.93290
Zr260      Zr  0.04814236  0.61416343  0.43870857     2.64680
O261        O  0.10439137  0.55664021  0.44172015    -0.98240
O262        O  0.04837265  0.61476646  0.36365189    -0.80300
O263        O  0.06824102  0.63258661  0.50021405    -0.83660
O264        O  0.02999964  0.59440061  0.50025932    -2.18370
O265        O  0.24272298  0.35366179  0.08488791    -0.67050
O266        O  0.24447872  0.63932801  0.04441844    -0.51610
C267        C  0.23084143  0.32959301  0.07369847     0.71720
O268        O  0.30861691  0.42140083  0.41617969    -0.59960
O269        O  0.02428893  0.41843742  0.45524733    -0.51930
C270        C  0.99987766  0.43277900  0.42669818     0.73520
O271        O  0.24241127  0.35324703  0.41481888    -0.71350
O272        O  0.24432711  0.63905614  0.45542804    -0.50030
C273        C  0.23054717  0.32924516  0.42608738     0.74910
O274        O  0.30913477  0.42154128  0.08359244    -0.66680
O275        O  0.02448285  0.41864607  0.04443221    -0.53880
C276        C  0.00030193  0.43295004  0.07305388     0.73290
Zr277      Zr  0.28906627  0.37437983  0.06116863     2.77540
O278        O  0.23229506  0.43129991  0.05657888    -0.97430
O279        O  0.28864343  0.37593937  0.13618015    -0.78250
Zr280      Zr  0.28907184  0.37387497  0.43820284     2.70070
O281        O  0.23171755  0.43024292  0.44145583    -0.79500
O282        O  0.29033422  0.37448988  0.36316440    -0.98580
Zr283      Zr  0.04038205  0.36518889  0.49996322     2.21500
Zr284      Zr  0.29743025  0.62325190  0.99999098     2.11130
O285        O  0.26903508  0.35594016  0.99970735    -2.47270
O286        O  0.30772735  0.39390989  0.99966477    -0.79290
O287        O  0.31588355  0.64205252  0.06234927    -0.71490
O288        O  0.02137680  0.34643340  0.43772743    -2.32440
O289        O  0.02139862  0.34689246  0.06226975    -2.28650
O290        O  0.31586101  0.64154563  0.43752946    -0.73250
H291        H  0.03927126  0.56773514  0.50040250     0.78750
H292        H  0.03004944  0.35486366  0.41388774     0.79840
H293        H  0.24235581  0.36539312  0.99957566     0.82060
H294        H  0.03012363  0.35542301  0.08611098     0.79670
H295        H  0.03756763  0.64134730  0.35614118     0.42710
H296        H  0.29462107  0.34907079  0.35489495     0.41680
H297        H  0.23573446  0.44472509  0.46421338     0.41350
H298        H  0.21416074  0.42395932  0.04299424     0.39290
H299        H  0.30253781  0.34971011  0.14447374     0.42420
H300        H  0.04540186  0.64087185  0.14427843     0.37200
H301        H  0.11687125  0.55868330  0.03404346     0.43320
H302        H  0.09711344  0.53897470  0.45628978     0.39730
H303        H  0.22357564  0.43677209  0.08540950     0.44650
H304        H  0.07292833  0.59878408  0.14510647     0.43380
H305        H  0.10853370  0.54766614  0.41287673     0.43510
H306        H  0.26442215  0.39016569  0.35486180     0.43870
C307        C  0.00313689  0.49377516  0.16119338     0.03420
C308        C  0.00397440  0.52392726  0.13978818    -0.12730
C309        C  0.00302002  0.52467624  0.09654967     0.00920
C310        C  0.00172012  0.49481237  0.07475202    -0.11250
C311        C  0.00101476  0.46449990  0.09594711     0.03410
C312        C  0.00142121  0.46423789  0.13918865    -0.10670
H313        H  0.00495426  0.54692697  0.15679898     0.09010
H314        H  0.00128089  0.49514610  0.04133205     0.06540
H315        H  0.00072885  0.44094252  0.15572979     0.06380
C316        C  0.00216358  0.49379350  0.33882310     0.03420
C317        C  0.00319576  0.52385714  0.36038035    -0.12730
C318        C  0.00243442  0.52453896  0.40360559     0.00920
C319        C  0.00117078  0.49466903  0.42525645    -0.11250
C320        C  0.00040702  0.46437675  0.40391396     0.03410
C321        C  0.00068276  0.46414943  0.36066216    -0.10670
H322        H  0.00417033  0.54685634  0.34348106     0.09010
H323        H  0.00086983  0.49495013  0.45867639     0.06540
H324        H  0.00005882  0.44082552  0.34399762     0.06380
C325        C  0.17147126  0.65564766  0.16066469     0.03420
C326        C  0.14211302  0.65371077  0.13827638    -0.12730
C327        C  0.14065443  0.65691857  0.09520825     0.00920
C328        C  0.16954564  0.66060407  0.07423113    -0.11250
C329        C  0.19940104  0.66182375  0.09613133     0.03410
C330        C  0.19985415  0.66020787  0.13930875    -0.10670
H331        H  0.11993646  0.65047543  0.15446445     0.09010
H332        H  0.16891597  0.66231383  0.04086463     0.06540
H333        H  0.22246888  0.66215647  0.15614551     0.06380
C334        C  0.17002200  0.65626148  0.33920131     0.03420
C335        C  0.14119877  0.65361912  0.36168373    -0.12730
C336        C  0.14016049  0.65664006  0.40477124     0.00920
C337        C  0.16921156  0.66031979  0.42569079    -0.11250
C338        C  0.19889270  0.66155834  0.40372657     0.03410
C339        C  0.19886757  0.66023258  0.36053420    -0.10670
H340        H  0.11914024  0.64990895  0.34563474     0.09010
H341        H  0.16888419  0.66191853  0.45906486     0.06540
H342        H  0.22152074  0.66183205  0.34359578     0.06380
C343        C  0.17140194  0.65455375  0.20637454    -0.05200
C344        C  0.13898705  0.67702610  0.22764222    -0.32600
C345        C  0.13799481  0.67749546  0.27073120     0.36650
C346        C  0.16990442  0.65523095  0.29347957    -0.05530
C347        C  0.20224707  0.63238008  0.27224247    -0.32500
C348        C  0.20319503  0.63190978  0.22905251     0.36550
H349        H  0.11445290  0.69495165  0.21073857     0.16920
O350        O  0.10640772  0.70147003  0.29031171    -0.60000
H351        H  0.22686624  0.61477376  0.28923491     0.16940
O352        O  0.23476154  0.60821043  0.20925815    -0.60100
H353        H  0.25329723  0.61824367  0.21432254     0.43930
H354        H  0.08801024  0.35781096  0.28591679     0.43890
C355        C  0.00327113  0.49348974  0.20665444    -0.05170
C356        C  0.30558888  0.51863123  0.22799829    -0.32600
C357        C  0.30488221  0.51868587  0.27111319     0.36650
C358        C  0.00227073  0.49357789  0.29337289    -0.05530
C359        C  0.03327418  0.46827307  0.27205909    -0.32500
C360        C  0.03390038  0.46812483  0.22888671     0.36550
H361        H  0.28172567  0.53783448  0.21108049     0.16920
O362        O  0.27399222  0.54313358  0.29131059    -0.60000
H363        H  0.05712531  0.44892803  0.28896265     0.16940
O364        O  0.06494303  0.44396363  0.20868249    -0.60100
H365        H  0.06079414  0.42143956  0.20404804     0.43930
H366        H  0.25808734  0.52983387  0.29483327     0.43890
O367        O  0.09685968  0.63279424  0.58291457    -0.75000
O368        O  0.09419480  0.34835034  0.54423564    -0.53910
C369        C  0.10863555  0.65702131  0.57245707     0.78730
O370        O  0.02696313  0.56819455  0.91504597    -0.59600
O371        O  0.31276018  0.57008612  0.95544293    -0.52630
C372        C  0.33627339  0.55634963  0.92612870     0.70740
O373        O  0.09649780  0.63245622  0.91713917    -0.74160
O374        O  0.09407484  0.34803839  0.95581859    -0.54720
C375        C  0.10833998  0.65668731  0.92759224     0.76750
O376        O  0.02741869  0.56839870  0.58522105    -0.59300
O377        O  0.31294871  0.57029578  0.54483754    -0.52420
C378        C  0.33666044  0.55655195  0.57413032     0.73340
Zr379      Zr  0.04815067  0.61461942  0.56175317     2.54710
O380        O  0.10408980  0.55683347  0.55945492    -0.79870
O381        O  0.04745539  0.61597923  0.63683972    -0.93290
Zr382      Zr  0.04814236  0.61416340  0.93870859     2.64680
O383        O  0.10439137  0.55664019  0.94172026    -0.98240
O384        O  0.04837272  0.61476637  0.86365191    -0.80300
O385        O  0.06824101  0.63258660  0.00021407    -0.83660
O386        O  0.02999963  0.59440060  0.00025934    -2.18370
O387        O  0.24272300  0.35366178  0.58488792    -0.67050
O388        O  0.24447873  0.63932801  0.54441844    -0.51610
C389        C  0.23084145  0.32959301  0.57369846     0.71720
O390        O  0.30861690  0.42140082  0.91617970    -0.59960
O391        O  0.02428893  0.41843740  0.95524739    -0.51930
C392        C  0.99987767  0.43277897  0.92669823     0.73520
O393        O  0.24241126  0.35324701  0.91481888    -0.71350
O394        O  0.24432710  0.63905613  0.95542804    -0.50030
C395        C  0.23054716  0.32924515  0.92608739     0.74910
O396        O  0.30913478  0.42154128  0.58359243    -0.66680
O397        O  0.02448286  0.41864609  0.54443215    -0.53880
C398        C  0.00030194  0.43295005  0.57305382     0.73290
Zr399      Zr  0.28906629  0.37437982  0.56116863     2.77540
O400        O  0.23229506  0.43129989  0.55657889    -0.97430
O401        O  0.28864345  0.37593937  0.63618015    -0.78250
Zr402      Zr  0.28907184  0.37387495  0.93820284     2.70070
O403        O  0.23171753  0.43024290  0.94145580    -0.79500
O404        O  0.29033422  0.37448986  0.86316439    -0.98580
Zr405      Zr  0.04038204  0.36518888  0.99996326     2.21500
Zr406      Zr  0.29743025  0.62325191  0.49999098     2.11130
O407        O  0.26903510  0.35594016  0.49970735    -2.47270
O408        O  0.30772736  0.39390990  0.49966477    -0.79290
O409        O  0.31588356  0.64205252  0.56234928    -0.71490
O410        O  0.02137679  0.34643338  0.93772746    -2.32440
O411        O  0.02139865  0.34689246  0.56226972    -2.28650
O412        O  0.31586100  0.64154561  0.93752945    -0.73250
H413        H  0.03927126  0.56773513  0.00040253     0.78750
H414        H  0.03004945  0.35486364  0.91388778     0.79840
H415        H  0.24235583  0.36539312  0.49957566     0.82060
H416        H  0.03012365  0.35542300  0.58611095     0.79670
H417        H  0.03756755  0.64134720  0.85614117     0.42710
H418        H  0.29462107  0.34907077  0.85489495     0.41680
H419        H  0.23573443  0.44472507  0.96421337     0.41350
H420        H  0.21416074  0.42395929  0.54299428     0.39290
H421        H  0.30253786  0.34971011  0.64447374     0.42420
H422        H  0.04540191  0.64087180  0.64427843     0.37200
H423        H  0.11687126  0.55868332  0.53404338     0.43320
H424        H  0.09711341  0.53897468  0.95628985     0.39730
H425        H  0.22357566  0.43677208  0.58540951     0.44650
H426        H  0.07292841  0.59878405  0.64510643     0.43380
H427        H  0.10853374  0.54766611  0.91287683     0.43510
H428        H  0.26442216  0.39016567  0.85486180     0.43870
C429        C  0.00313701  0.49377507  0.66119337     0.03420
C430        C  0.00397447  0.52392720  0.63978818    -0.12730
C431        C  0.00302003  0.52467623  0.59654966     0.00920
C432        C  0.00172011  0.49481238  0.57475199    -0.11250
C433        C  0.00101478  0.46449990  0.59594706     0.03410
C434        C  0.00142129  0.46423783  0.63918859    -0.10670
H435        H  0.00495435  0.54692689  0.65679898     0.09010
H436        H  0.00128084  0.49514614  0.54133203     0.06540
H437        H  0.00072891  0.44094246  0.65572970     0.06380
C438        C  0.00216371  0.49379340  0.83882314     0.03420
C439        C  0.00319585  0.52385706  0.86038038    -0.12730
C440        C  0.00243444  0.52453892  0.90360562     0.00920
C441        C  0.00117077  0.49466901  0.92525648    -0.11250
C442        C  0.00040706  0.46437671  0.90391400     0.03410
C443        C  0.00068288  0.46414934  0.86066221    -0.10670
H444        H  0.00417044  0.54685625  0.84348109     0.09010
H445        H  0.00086976  0.49495014  0.95867643     0.06540
H446        H  0.00005897  0.44082540  0.84399768     0.06380
C447        C  0.17147124  0.65564769  0.66066469     0.03420
C448        C  0.14211301  0.65371080  0.63827637    -0.12730
C449        C  0.14065443  0.65691857  0.59520825     0.00920
C450        C  0.16954565  0.66060406  0.57423113    -0.11250
C451        C  0.19940104  0.66182376  0.59613133     0.03410
C452        C  0.19985413  0.66020790  0.63930876    -0.10670
H453        H  0.11993645  0.65047546  0.65446444     0.09010
H454        H  0.16891599  0.66231381  0.54086463     0.06540
H455        H  0.22246886  0.66215651  0.65614552     0.06380
C456        C  0.17002197  0.65626150  0.83920132     0.03420
C457        C  0.14119875  0.65361912  0.86168373    -0.12730
C458        C  0.14016048  0.65664004  0.90477124     0.00920
C459        C  0.16921156  0.66031977  0.92569079    -0.11250
C460        C  0.19889269  0.66155834  0.90372657     0.03410
C461        C  0.19886754  0.66023260  0.86053420    -0.10670
H462        H  0.11914022  0.64990895  0.84563474     0.09010
H463        H  0.16888419  0.66191849  0.95906487     0.06540
H464        H  0.22152071  0.66183208  0.84359579     0.06380
C465        C  0.17140192  0.65455379  0.70637455    -0.05200
C466        C  0.13898701  0.67702612  0.72764222    -0.32600
C467        C  0.13799477  0.67749547  0.77073120     0.36650
C468        C  0.16990439  0.65523098  0.79347958    -0.05530
C469        C  0.20224705  0.63238014  0.77224248    -0.32500
C470        C  0.20319501  0.63190984  0.72905251     0.36550
H471        H  0.11445286  0.69495165  0.71073857     0.16920
O472        O  0.10640767  0.70147002  0.79031171    -0.60000
H473        H  0.22686622  0.61477383  0.78923491     0.16940
O474        O  0.23476153  0.60821051  0.70925816    -0.60100
H475        H  0.25329721  0.61824376  0.71432257     0.43930
H476        H  0.08801017  0.35781081  0.78591672     0.43890
C477        C  0.00327127  0.49348961  0.70665444    -0.05170
C478        C  0.30558901  0.51863138  0.72799829    -0.32600
C479        C  0.30488232  0.51868602  0.77111319     0.36650
C480        C  0.00227086  0.49357777  0.79337291    -0.05530
C481        C  0.03327382  0.46827214  0.77205909    -0.32500
C482        C  0.03390002  0.46812388  0.72888670     0.36550
H483        H  0.28172588  0.53783477  0.71108050     0.16920
O484        O  0.27399242  0.54313390  0.79131058    -0.60000
H485        H  0.05712459  0.44892648  0.78896263     0.16940
O486        O  0.06494223  0.44396186  0.70868248    -0.60100
H487        H  0.06079261  0.42143815  0.70404855     0.43930
H488        H  0.25808738  0.52983437  0.79483327     0.43890
O489        O  0.09685967  0.96612757  0.08291458    -0.75000
O490        O  0.09419482  0.68168366  0.04423568    -0.53910
C491        C  0.10863553  0.99035464  0.07245708     0.78730
O492        O  0.02696313  0.90152790  0.41504594    -0.59600
O493        O  0.31276019  0.90341945  0.45544292    -0.52630
C494        C  0.33627339  0.88968297  0.42612869     0.70740
O495        O  0.09649781  0.96578955  0.41713914    -0.74160
O496        O  0.09407487  0.68137175  0.45581860    -0.54720
C497        C  0.10833999  0.99002063  0.42759222     0.76750
O498        O  0.02741868  0.90173203  0.08522105    -0.59300
O499        O  0.31294869  0.90362911  0.04483754    -0.52420
C500        C  0.33666042  0.88988528  0.07413033     0.73340
Zr501      Zr  0.04815066  0.94795275  0.06175318     2.54710
O502        O  0.10408979  0.89016680  0.05945498    -0.79870
O503        O  0.04745535  0.94931258  0.13683973    -0.93290
Zr504      Zr  0.04814237  0.94749674  0.43870856     2.64680
O505        O  0.10439137  0.88997352  0.44172019    -0.98240
O506        O  0.04837269  0.94809973  0.36365188    -0.80300
O507        O  0.06824103  0.96591992  0.50021404    -0.83660
O508        O  0.02999964  0.92773393  0.50025931    -2.18370
O509        O  0.24272303  0.68699509  0.08488794    -0.67050
O510        O  0.24447871  0.97266134  0.04441843    -0.51610
C511        C  0.23084148  0.66292630  0.07369849     0.71720
O512        O  0.30861694  0.75473415  0.41617972    -0.59960
O513        O  0.02428895  0.75177075  0.45524736    -0.51930
C514        C  0.99987769  0.76611232  0.42669820     0.73520
O515        O  0.24241130  0.68658036  0.41481890    -0.71350
O516        O  0.24432711  0.97238946  0.45542803    -0.50030
C517        C  0.23054720  0.66257849  0.42608740     0.74910
O518        O  0.30913478  0.75487460  0.08359244    -0.66680
O519        O  0.02448287  0.75197941  0.04443221    -0.53880
C520        C  0.00030195  0.76628337  0.07305388     0.73290
Zr521      Zr  0.28906631  0.70771314  0.06116864     2.77540
O522        O  0.23229507  0.76463321  0.05657892    -0.97430
O523        O  0.28864348  0.70927268  0.13618017    -0.78250
Zr524      Zr  0.28907187  0.70720829  0.43820288     2.70070
O525        O  0.23171758  0.76357625  0.44145585    -0.79500
O526        O  0.29033425  0.70782320  0.36316443    -0.98580
Zr527      Zr  0.04038208  0.69852222  0.49996326     2.21500
Zr528      Zr  0.29743024  0.95658523  0.99999098     2.11130
O529        O  0.26903511  0.68927348  0.99970736    -2.47270
O530        O  0.30772738  0.72724321  0.99966479    -0.79290
O531        O  0.31588355  0.97538585  0.06234928    -0.71490
O532        O  0.02137682  0.67976674  0.43772747    -2.32440
O533        O  0.02139865  0.68022579  0.06226976    -2.28650
O534        O  0.31586101  0.97487894  0.43752944    -0.73250
H535        H  0.03927126  0.90106846  0.50040250     0.78750
H536        H  0.03004947  0.68819699  0.41388778     0.79840
H537        H  0.24235584  0.69872644  0.99957568     0.82060
H538        H  0.03012366  0.68875634  0.08611099     0.79670
H539        H  0.03756757  0.97468057  0.35614115     0.42710
H540        H  0.29462110  0.68240411  0.35489498     0.41680
H541        H  0.23573448  0.77805840  0.46421342     0.41350
H542        H  0.21416076  0.75729261  0.04299427     0.39290
H543        H  0.30253785  0.68304342  0.14447375     0.42420
H544        H  0.04540186  0.97420515  0.14427843     0.37200
H545        H  0.11687127  0.89201665  0.03404344     0.43320
H546        H  0.09711343  0.87230801  0.45628980     0.39730
H547        H  0.22357566  0.77010538  0.08540953     0.44650
H548        H  0.07292836  0.93211740  0.14510646     0.43380
H549        H  0.10853372  0.88099944  0.41287676     0.43510
H550        H  0.26442219  0.72349901  0.35486183     0.43870
C551        C  0.00313693  0.82710848  0.16119339     0.03420
C552        C  0.00397442  0.85726058  0.13978819    -0.12730
C553        C  0.00302002  0.85800958  0.09654967     0.00920
C554        C  0.00172012  0.82814571  0.07475202    -0.11250
C555        C  0.00101478  0.79783323  0.09594711     0.03410
C556        C  0.00142124  0.79757121  0.13918864    -0.10670
H557        H  0.00495427  0.88026029  0.15679898     0.09010
H558        H  0.00128088  0.82847944  0.04133205     0.06540
H559        H  0.00072888  0.77427584  0.15572978     0.06380
C560        C  0.00216361  0.82712680  0.33882311     0.03420
C561        C  0.00319577  0.85719045  0.36038035    -0.12730
C562        C  0.00243442  0.85787228  0.40360559     0.00920
C563        C  0.00117080  0.82800236  0.42525646    -0.11250
C564        C  0.00040705  0.79771006  0.40391397     0.03410
C565        C  0.00068280  0.79748273  0.36066217    -0.10670
H566        H  0.00417034  0.88018966  0.34348106     0.09010
H567        H  0.00086984  0.82828346  0.45867640     0.06540
H568        H  0.00005887  0.77415881  0.34399764     0.06380
C569        C  0.17147124  0.98898103  0.16066469     0.03420
C570        C  0.14211300  0.98704413  0.13827637    -0.12730
C571        C  0.14065442  0.99025190  0.09520825     0.00920
C572        C  0.16954563  0.99393739  0.07423112    -0.11250
C573        C  0.19940103  0.99515709  0.09613132     0.03410
C574        C  0.19985412  0.99354124  0.13930874    -0.10670
H575        H  0.11993645  0.98380879  0.15446445     0.09010
H576        H  0.16891597  0.99564714  0.04086462     0.06540
H577        H  0.22246885  0.99548985  0.15614550     0.06380
C578        C  0.17002198  0.98959483  0.33920130     0.03420
C579        C  0.14119876  0.98695245  0.36168371    -0.12730
C580        C  0.14016049  0.98997337  0.40477122     0.00920
C581        C  0.16921157  0.99365309  0.42569077    -0.11250
C582        C  0.19889270  0.99489167  0.40372655     0.03410
C583        C  0.19886755  0.99356593  0.36053419    -0.10670
H584        H  0.11914023  0.98324229  0.34563472     0.09010
H585        H  0.16888420  0.99525182  0.45906485     0.06540
H586        H  0.22152072  0.99516541  0.34359577     0.06380
C587        C  0.17140192  0.98788713  0.20637454    -0.05200
C588        C  0.13898702  0.01035946  0.22764221    -0.32600
C589        C  0.13799478  0.01082881  0.27073119     0.36650
C590        C  0.16990440  0.98856431  0.29347956    -0.05530
C591        C  0.20224706  0.96571347  0.27224246    -0.32500
C592        C  0.20319501  0.96524317  0.22905250     0.36550
H593        H  0.11445287  0.02828500  0.21073857     0.16920
O594        O  0.10640768  0.03480337  0.29031171    -0.60000
H595        H  0.22686623  0.94810716  0.28923489     0.16940
O596        O  0.23476153  0.94154384  0.20925814    -0.60100
H597        H  0.25329721  0.95157709  0.21432254     0.43930
H598        H  0.08801029  0.69114429  0.28591680     0.43890
C599        C  0.00327117  0.82682306  0.20665445    -0.05170
C600        C  0.30558900  0.85196469  0.22799830    -0.32600
C601        C  0.30488231  0.85201933  0.27111320     0.36650
C602        C  0.00227076  0.82691119  0.29337290    -0.05530
C603        C  0.03327412  0.80160622  0.27205910    -0.32500
C604        C  0.03390032  0.80145798  0.22888671     0.36550
H605        H  0.28172586  0.87116806  0.21108051     0.16920
O606        O  0.27399240  0.87646718  0.29131059    -0.60000
H607        H  0.05712518  0.78226106  0.28896265     0.16940
O608        O  0.06494289  0.77729663  0.20868250    -0.60100
H609        H  0.06079388  0.75477261  0.20404817     0.43930
H610        H  0.25808739  0.86316762  0.29483328     0.43890
O611        O  0.09685968  0.96612757  0.58291456    -0.75000
O612        O  0.09419482  0.68168367  0.54423568    -0.53910
C613        C  0.10863555  0.99035464  0.57245706     0.78730
O614        O  0.02696313  0.90152789  0.91504596    -0.59600
O615        O  0.31276018  0.90341946  0.95544294    -0.52630
C616        C  0.33627339  0.88968297  0.92612870     0.70740
O617        O  0.09649779  0.96578956  0.91713916    -0.74160
O618        O  0.09407486  0.68137173  0.95581860    -0.54720
C619        C  0.10833998  0.99002064  0.92759223     0.76750
O620        O  0.02741868  0.90173204  0.58522105    -0.59300
O621        O  0.31294870  0.90362911  0.54483753    -0.52420
C622        C  0.33666042  0.88988529  0.57413033     0.73340
Zr623      Zr  0.04815067  0.94795275  0.56175316     2.54710
O624        O  0.10408980  0.89016679  0.55945494    -0.79870
O625        O  0.04745538  0.94931258  0.63683971    -0.93290
Zr626      Zr  0.04814236  0.94749674  0.93870858     2.64680
O627        O  0.10439138  0.88997352  0.94172020    -0.98240
O628        O  0.04837268  0.94809973  0.86365190    -0.80300
O629        O  0.06824102  0.96591992  0.00021406    -0.83660
O630        O  0.02999964  0.92773393  0.00025933    -2.18370
O631        O  0.24272303  0.68699509  0.58488795    -0.67050
O632        O  0.24447873  0.97266134  0.54441842    -0.51610
C633        C  0.23084148  0.66292631  0.57369849     0.71720
O634        O  0.30861693  0.75473415  0.91617970    -0.59960
O635        O  0.02428894  0.75177073  0.95524736    -0.51930
C636        C  0.99987768  0.76611231  0.92669820     0.73520
O637        O  0.24241129  0.68658035  0.91481890    -0.71350
O638        O  0.24432710  0.97238946  0.95542804    -0.50030
C639        C  0.23054719  0.66257848  0.92608740     0.74910
O640        O  0.30913479  0.75487460  0.58359247    -0.66680
O641        O  0.02448287  0.75197942  0.54443222    -0.53880
C642        C  0.00030196  0.76628338  0.57305388     0.73290
Zr643      Zr  0.28906631  0.70771314  0.56116866     2.77540
O644        O  0.23229508  0.76463321  0.55657893    -0.97430
O645        O  0.28864348  0.70927267  0.63618019    -0.78250
Zr646      Zr  0.28907187  0.70720828  0.93820286     2.70070
O647        O  0.23171757  0.76357624  0.94145582    -0.79500
O648        O  0.29033425  0.70782318  0.86316441    -0.98580
Zr649      Zr  0.04038207  0.69852221  0.99996326     2.21500
Zr650      Zr  0.29743025  0.95658523  0.49999097     2.11130
O651        O  0.26903512  0.68927349  0.49970737    -2.47270
O652        O  0.30772739  0.72724322  0.49966481    -0.79290
O653        O  0.31588356  0.97538585  0.56234926    -0.71490
O654        O  0.02137682  0.67976672  0.93772747    -2.32440
O655        O  0.02139867  0.68022579  0.56226975    -2.28650
O656        O  0.31586100  0.97487895  0.93752946    -0.73250
H657        H  0.03927126  0.90106846  0.00040252     0.78750
H658        H  0.03004947  0.68819697  0.91388778     0.79840
H659        H  0.24235585  0.69872644  0.49957569     0.82060
H660        H  0.03012368  0.68875633  0.58611099     0.79670
H661        H  0.03756763  0.97468057  0.85614117     0.42710
H662        H  0.29462109  0.68240409  0.85489497     0.41680
H663        H  0.23573447  0.77805839  0.96421340     0.41350
H664        H  0.21416077  0.75729261  0.54299429     0.39290
H665        H  0.30253786  0.68304341  0.64447377     0.42420
H666        H  0.04540190  0.97420515  0.64427841     0.37200
H667        H  0.11687127  0.89201664  0.53404340     0.43320
H668        H  0.09711344  0.87230802  0.95628982     0.39730
H669        H  0.22357566  0.77010538  0.58540955     0.44650
H670        H  0.07292839  0.93211739  0.64510643     0.43380
H671        H  0.10853372  0.88099944  0.91287678     0.43510
H672        H  0.26442219  0.72349900  0.85486181     0.43870
C673        C  0.00313691  0.82710850  0.66119339     0.03420
C674        C  0.00397440  0.85726060  0.63978819    -0.12730
C675        C  0.00302001  0.85800959  0.59654967     0.00920
C676        C  0.00172012  0.82814572  0.57475203    -0.11250
C677        C  0.00101477  0.79783324  0.59594712     0.03410
C678        C  0.00142123  0.79757123  0.63918865    -0.10670
H679        H  0.00495426  0.88026032  0.65679898     0.09010
H680        H  0.00128088  0.82847945  0.54133206     0.06540
H681        H  0.00072887  0.77427586  0.65572979     0.06380
C682        C  0.00216361  0.82712680  0.83882312     0.03420
C683        C  0.00319577  0.85719045  0.86038036    -0.12730
C684        C  0.00243442  0.85787227  0.90360561     0.00920
C685        C  0.00117079  0.82800234  0.92525646    -0.11250
C686        C  0.00040704  0.79771005  0.90391398     0.03410
C687        C  0.00068279  0.79748273  0.86066218    -0.10670
H688        H  0.00417034  0.88018965  0.84348108     0.09010
H689        H  0.00086984  0.82828345  0.95867641     0.06540
H690        H  0.00005886  0.77415881  0.84399764     0.06380
C691        C  0.17147129  0.98898095  0.66066468     0.03420
C692        C  0.14211304  0.98704408  0.63827636    -0.12730
C693        C  0.14065444  0.99025189  0.59520824     0.00920
C694        C  0.16954565  0.99393740  0.57423112    -0.11250
C695        C  0.19940105  0.99515707  0.59613132     0.03410
C696        C  0.19985417  0.99354117  0.63930874    -0.10670
H697        H  0.11993649  0.98380872  0.65446443     0.09010
H698        H  0.16891597  0.99564717  0.54086462     0.06540
H699        H  0.22246890  0.99548976  0.65614550     0.06380
C700        C  0.17002200  0.98959478  0.83920131     0.03420
C701        C  0.14119876  0.98695242  0.86168372    -0.12730
C702        C  0.14016048  0.98997337  0.90477123     0.00920
C703        C  0.16921155  0.99365311  0.92569078    -0.11250
C704        C  0.19889269  0.99489166  0.90372656     0.03410
C705        C  0.19886757  0.99356589  0.86053420    -0.10670
H706        H  0.11914024  0.98324225  0.84563474     0.09010
H707        H  0.16888417  0.99525186  0.95906486     0.06540
H708        H  0.22152074  0.99516535  0.84359578     0.06380
C709        C  0.17140197  0.98788703  0.70637454    -0.05200
C710        C  0.13898707  0.01035937  0.72764220    -0.32600
C711        C  0.13799482  0.01082873  0.77073119     0.36650
C712        C  0.16990444  0.98856423  0.79347957    -0.05530
C713        C  0.20224709  0.96571338  0.77224247    -0.32500
C714        C  0.20319506  0.96524308  0.72905251     0.36550
H715        H  0.11445293  0.02828491  0.71073855     0.16920
O716        O  0.10640772  0.03480329  0.79031169    -0.60000
H717        H  0.22686626  0.94810706  0.78923491     0.16940
O718        O  0.23476157  0.94154373  0.70925815    -0.60100
H719        H  0.25329726  0.95157698  0.71432255     0.43930
H720        H  0.08801026  0.69114426  0.78591679     0.43890
C721        C  0.00327116  0.82682307  0.70665446    -0.05170
C722        C  0.30558881  0.85196452  0.72799830    -0.32600
C723        C  0.30488214  0.85201915  0.77111321     0.36650
C724        C  0.00227075  0.82691120  0.79337290    -0.05530
C725        C  0.03327412  0.80160623  0.77205910    -0.32500
C726        C  0.03390031  0.80145800  0.72888671     0.36550
H727        H  0.28172557  0.87116772  0.71108051     0.16920
O728        O  0.27399211  0.87646678  0.79131061    -0.60000
H729        H  0.05712518  0.78226108  0.78896265     0.16940
O730        O  0.06494289  0.77729666  0.70868250    -0.60100
H731        H  0.06079388  0.75477265  0.70404816     0.43930
H732        H  0.25808730  0.86316701  0.79483328     0.43890
O733        O  0.43019298  0.29946092  0.08291456    -0.75000
O734        O  0.42752815  0.01501698  0.04423568    -0.53910
C735        C  0.44196884  0.32368799  0.07245705     0.78730
O736        O  0.36029645  0.23486122  0.41504595    -0.59600
O737        O  0.64609350  0.23675280  0.45544293    -0.52630
C738        C  0.66960672  0.22301630  0.42612871     0.70740
O739        O  0.42983112  0.29912290  0.41713915    -0.74160
O740        O  0.42740822  0.01470504  0.45581858    -0.54720
C741        C  0.44167330  0.32335398  0.42759222     0.76750
O742        O  0.36075198  0.23506538  0.08522105    -0.59300
O743        O  0.64628198  0.23696246  0.04483755    -0.52420
C744        C  0.66999372  0.22321863  0.07413033     0.73340
Zr745      Zr  0.38148396  0.28128609  0.06175318     2.54710
O746        O  0.43742310  0.22350015  0.05945498    -0.79870
O747        O  0.38078866  0.28264594  0.13683972    -0.93290
Zr748      Zr  0.38147567  0.28083009  0.43870856     2.64680
O749        O  0.43772469  0.22330687  0.44172013    -0.98240
O750        O  0.38170594  0.28143312  0.36365187    -0.80300
O751        O  0.40157433  0.29925327  0.50021403    -0.83660
O752        O  0.36333295  0.26106727  0.50025931    -2.18370
O753        O  0.57605635  0.02032842  0.08488793    -0.67050
O754        O  0.57781200  0.30599472  0.04441842    -0.51610
C755        C  0.56417480  0.99625964  0.07369848     0.71720
O756        O  0.64195029  0.08806748  0.41617974    -0.59960
O757        O  0.35762230  0.08510405  0.45524736    -0.51930
C758        C  0.33321103  0.09944562  0.42669821     0.73520
O759        O  0.57574463  0.01991367  0.41481888    -0.71350
O760        O  0.57766040  0.30572282  0.45542802    -0.50030
C761        C  0.56388053  0.99591181  0.42608739     0.74910
O762        O  0.64246810  0.08820795  0.08359238    -0.66680
O763        O  0.35781620  0.08531273  0.04443221    -0.53880
C764        C  0.33363527  0.09961670  0.07305387     0.73290
Zr765      Zr  0.62239963  0.04104647  0.06116863     2.77540
O766        O  0.56562840  0.09796653  0.05657892    -0.97430
O767        O  0.62197683  0.04260601  0.13618016    -0.78250
Zr768      Zr  0.62240520  0.04054162  0.43820285     2.70070
O769        O  0.56505090  0.09690957  0.44145581    -0.79500
O770        O  0.62366758  0.04115654  0.36316440    -0.98580
Zr771      Zr  0.37371542  0.03185552  0.49996325     2.21500
Zr772      Zr  0.63076354  0.28991858  0.99999097     2.11130
O773        O  0.60236844  0.02260681  0.99970735    -2.47270
O774        O  0.64106072  0.06057653  0.99966478    -0.79290
O775        O  0.64921684  0.30871921  0.06234926    -0.71490
O776        O  0.35471017  0.01310004  0.43772745    -2.32440
O777        O  0.35473199  0.01355911  0.06226977    -2.28650
O778        O  0.64919430  0.30821231  0.43752944    -0.73250
H779        H  0.37260458  0.23440180  0.50040249     0.78750
H780        H  0.36338282  0.02153029  0.41388776     0.79840
H781        H  0.57568917  0.03205977  0.99957567     0.82060
H782        H  0.36345699  0.02208965  0.08611100     0.79670
H783        H  0.37090096  0.30801396  0.35614116     0.42710
H784        H  0.62795443  0.01573745  0.35489495     0.41680
H785        H  0.56906779  0.11139171  0.46421340     0.41350
H786        H  0.54749409  0.09062593  0.04299426     0.39290
H787        H  0.63587117  0.01637675  0.14447374     0.42420
H788        H  0.37873518  0.30753851  0.14427842     0.37200
H789        H  0.45020457  0.22534998  0.03404344     0.43320
H790        H  0.43044677  0.20564137  0.45628978     0.39730
H791        H  0.55690898  0.10343869  0.08540954     0.44650
H792        H  0.40626167  0.26545075  0.14510645     0.43380
H793        H  0.44186699  0.21433278  0.41287670     0.43510
H794        H  0.59775552  0.05683236  0.35486181     0.43870
C795        C  0.33647024  0.16044181  0.16119339     0.03420
C796        C  0.33730772  0.19059391  0.13978819    -0.12730
C797        C  0.33635332  0.19134291  0.09654967     0.00920
C798        C  0.33505343  0.16147904  0.07475202    -0.11250
C799        C  0.33434809  0.13116656  0.09594710     0.03410
C800        C  0.33475456  0.13090454  0.13918864    -0.10670
H801        H  0.33828758  0.21359362  0.15679899     0.09010
H802        H  0.33461419  0.16181278  0.04133205     0.06540
H803        H  0.33406220  0.10760917  0.15572977     0.06380
C804        C  0.33549696  0.16046011  0.33882312     0.03420
C805        C  0.33652911  0.19052377  0.36038037    -0.12730
C806        C  0.33576775  0.19120560  0.40360561     0.00920
C807        C  0.33450413  0.16133567  0.42525647    -0.11250
C808        C  0.33374040  0.13104337  0.40391398     0.03410
C809        C  0.33401615  0.13081604  0.36066219    -0.10670
H810        H  0.33750367  0.21352297  0.34348107     0.09010
H811        H  0.33420317  0.16161678  0.45867641     0.06540
H812        H  0.33339223  0.10749212  0.34399765     0.06380
C813        C  0.50480448  0.32231448  0.16066467     0.03420
C814        C  0.47544627  0.32037753  0.13827635    -0.12730
C815        C  0.47398772  0.32358526  0.09520822     0.00920
C816        C  0.50287893  0.32727075  0.07423109    -0.11250
C817        C  0.53273430  0.32849049  0.09613130     0.03410
C818        C  0.53318737  0.32687469  0.13930872    -0.10670
H819        H  0.45326972  0.31714218  0.15446442     0.09010
H820        H  0.50224928  0.32898047  0.04086459     0.06540
H821        H  0.55580207  0.32882335  0.15614548     0.06380
C822        C  0.50335524  0.32292826  0.33920130     0.03420
C823        C  0.47453204  0.32028584  0.36168371    -0.12730
C824        C  0.47349379  0.32330672  0.40477123     0.00920
C825        C  0.50254487  0.32698644  0.42569078    -0.11250
C826        C  0.53222599  0.32822504  0.40372655     0.03410
C827        C  0.53220081  0.32689936  0.36053419    -0.10670
H828        H  0.45247351  0.31657567  0.34563473     0.09010
H829        H  0.50221752  0.32858513  0.45906486     0.06540
H830        H  0.55485397  0.32849887  0.34359577     0.06380
C831        C  0.50473515  0.32122058  0.20637452    -0.05200
C832        C  0.47232023  0.34369284  0.22764220    -0.32600
C833        C  0.47132800  0.34416219  0.27073118     0.36650
C834        C  0.50323765  0.32189777  0.29347955    -0.05530
C835        C  0.53558033  0.29904701  0.27224245    -0.32500
C836        C  0.53652828  0.29857671  0.22905249     0.36550
H837        H  0.44778605  0.36161833  0.21073856     0.16920
O838        O  0.43974087  0.36813669  0.29031170    -0.60000
H839        H  0.56019952  0.28144078  0.28923488     0.16940
O840        O  0.56809482  0.27487745  0.20925813    -0.60100
H841        H  0.58663046  0.28491075  0.21432257     0.43930
H842        H  0.42134360  0.02447760  0.28591679     0.43890
C843        C  0.33660449  0.16015637  0.20665445    -0.05170
C844        C  0.63892297  0.18529868  0.22799832    -0.32600
C845        C  0.63821628  0.18535334  0.27111322     0.36650
C846        C  0.33560409  0.16024451  0.29337290    -0.05530
C847        C  0.36660737  0.13493940  0.27205910    -0.32500
C848        C  0.36723356  0.13479116  0.22888671     0.36550
H849        H  0.61506018  0.20450267  0.21108054     0.16920
O850        O  0.60732679  0.20980194  0.29131061    -0.60000
H851        H  0.39045838  0.11559414  0.28896264     0.16940
O852        O  0.39827606  0.11062968  0.20868249    -0.60100
H853        H  0.39412692  0.08810572  0.20404824     0.43930
H854        H  0.59142105  0.19650317  0.29483335     0.43890
O855        O  0.43019300  0.29946091  0.58291454    -0.75000
O856        O  0.42752817  0.01501697  0.54423567    -0.53910
C857        C  0.44196885  0.32368798  0.57245704     0.78730
O858        O  0.36029645  0.23486122  0.91504596    -0.59600
O859        O  0.64609348  0.23675279  0.95544293    -0.52630
C860        C  0.66960670  0.22301630  0.92612871     0.70740
O861        O  0.42983111  0.29912288  0.91713916    -0.74160
O862        O  0.42740819  0.01470506  0.95581860    -0.54720
C863        C  0.44167329  0.32335397  0.92759223     0.76750
O864        O  0.36075200  0.23506537  0.58522105    -0.59300
O865        O  0.64628200  0.23696247  0.54483754    -0.52420
C866        C  0.66999373  0.22321864  0.57413032     0.73340
Zr867      Zr  0.38148399  0.28128608  0.56175315     2.54710
O868        O  0.43742311  0.22350013  0.55945490    -0.79870
O869        O  0.38078872  0.28264589  0.63683970    -0.93290
Zr870      Zr  0.38147567  0.28083007  0.93870859     2.64680
O871        O  0.43772467  0.22330685  0.94172024    -0.98240
O872        O  0.38170602  0.28143304  0.86365190    -0.80300
O873        O  0.40157432  0.29925327  0.00021406    -0.83660
O874        O  0.36333294  0.26106727  0.00025933    -2.18370
O875        O  0.57605637  0.02032840  0.58488793    -0.67050
O876        O  0.57781201  0.30599472  0.54441842    -0.51610
C877        C  0.56417482  0.99625962  0.57369847     0.71720
O878        O  0.64195028  0.08806747  0.91617973    -0.59960
O879        O  0.35762230  0.08510405  0.95524740    -0.51930
C880        C  0.33321104  0.09944562  0.92669824     0.73520
O881        O  0.57574462  0.01991367  0.91481888    -0.71350
O882        O  0.57766039  0.30572281  0.95542803    -0.50030
C883        C  0.56388052  0.99591181  0.92608740     0.74910
O884        O  0.64246810  0.08820795  0.58359238    -0.66680
O885        O  0.35781622  0.08531273  0.54443216    -0.53880
C886        C  0.33363530  0.09961670  0.57305381     0.73290
Zr887      Zr  0.62239964  0.04104647  0.56116863     2.77540
O888        O  0.56562839  0.09796653  0.55657891    -0.97430
O889        O  0.62197682  0.04260603  0.63618016    -0.78250
Zr890      Zr  0.62240520  0.04054161  0.93820285     2.70070
O891        O  0.56505090  0.09690956  0.94145581    -0.79500
O892        O  0.62366758  0.04115653  0.86316440    -0.98580
Zr893      Zr  0.37371540  0.03185553  0.99996328     2.21500
Zr894      Zr  0.63076355  0.28991859  0.49999097     2.11130
O895        O  0.60236845  0.02260682  0.49970735    -2.47270
O896        O  0.64106072  0.06057654  0.49966478    -0.79290
O897        O  0.64921685  0.30871922  0.56234926    -0.71490
O898        O  0.35471015  0.01310005  0.93772747    -2.32440
O899        O  0.35473200  0.01355910  0.56226974    -2.28650
O900        O  0.64919429  0.30821229  0.93752945    -0.73250
H901        H  0.37260456  0.23440180  0.00040252     0.78750
H902        H  0.36338280  0.02153030  0.91388779     0.79840
H903        H  0.57568918  0.03205977  0.49957566     0.82060
H904        H  0.36345701  0.02208965  0.58611097     0.79670
H905        H  0.37090089  0.30801387  0.85614116     0.42710
H906        H  0.62795443  0.01573744  0.85489496     0.41680
H907        H  0.56906779  0.11139171  0.96421341     0.41350
H908        H  0.54749408  0.09062592  0.54299426     0.39290
H909        H  0.63587118  0.01637677  0.64447375     0.42420
H910        H  0.37873523  0.30753846  0.64427841     0.37200
H911        H  0.45020458  0.22535000  0.53404337     0.43320
H912        H  0.43044672  0.20564135  0.95628984     0.39730
H913        H  0.55690897  0.10343869  0.58540953     0.44650
H914        H  0.40626174  0.26545071  0.64510641     0.43380
H915        H  0.44186704  0.21433277  0.91287682     0.43510
H916        H  0.59775551  0.05683234  0.85486181     0.43870
C917        C  0.33647039  0.16044170  0.66119336     0.03420
C918        C  0.33730783  0.19059384  0.63978817    -0.12730
C919        C  0.33635336  0.19134289  0.59654966     0.00920
C920        C  0.33505344  0.16147904  0.57475199    -0.11250
C921        C  0.33434813  0.13116654  0.59594705     0.03410
C922        C  0.33475466  0.13090447  0.63918858    -0.10670
H923        H  0.33828771  0.21359354  0.65679898     0.09010
H924        H  0.33461416  0.16181281  0.54133202     0.06540
H925        H  0.33406229  0.10760908  0.65572968     0.06380
C926        C  0.33549710  0.16046002  0.83882314     0.03420
C927        C  0.33652920  0.19052370  0.86038039    -0.12730
C928        C  0.33576777  0.19120557  0.90360563     0.00920
C929        C  0.33450411  0.16133567  0.92525649    -0.11250
C930        C  0.33374043  0.13104335  0.90391401     0.03410
C931        C  0.33401628  0.13081596  0.86066222    -0.10670
H932        H  0.33750380  0.21352289  0.84348110     0.09010
H933        H  0.33420308  0.16161681  0.95867643     0.06540
H934        H  0.33339239  0.10749201  0.84399771     0.06380
C935        C  0.50480450  0.32231444  0.66066467     0.03420
C936        C  0.47544629  0.32037750  0.63827634    -0.12730
C937        C  0.47398773  0.32358525  0.59520822     0.00920
C938        C  0.50287895  0.32727075  0.57423110    -0.11250
C939        C  0.53273432  0.32849048  0.59613131     0.03410
C940        C  0.53318739  0.32687466  0.63930873    -0.10670
H941        H  0.45326974  0.31714215  0.65446441     0.09010
H942        H  0.50224929  0.32898047  0.54086460     0.06540
H943        H  0.55580210  0.32882330  0.65614549     0.06380
C944        C  0.50335524  0.32292822  0.83920130     0.03420
C945        C  0.47453204  0.32028580  0.86168372    -0.12730
C946        C  0.47349378  0.32330670  0.90477123     0.00920
C947        C  0.50254486  0.32698643  0.92569078    -0.11250
C948        C  0.53222598  0.32822502  0.90372655     0.03410
C949        C  0.53220081  0.32689932  0.86053419    -0.10670
H950        H  0.45247351  0.31657563  0.84563474     0.09010
H951        H  0.50221750  0.32858513  0.95906486     0.06540
H952        H  0.55485397  0.32849882  0.84359577     0.06380
C953        C  0.50473517  0.32122054  0.70637452    -0.05200
C954        C  0.47232025  0.34369280  0.72764220    -0.32600
C955        C  0.47132801  0.34416214  0.77073118     0.36650
C956        C  0.50323765  0.32189771  0.79347956    -0.05530
C957        C  0.53558033  0.29904695  0.77224245    -0.32500
C958        C  0.53652829  0.29857666  0.72905249     0.36550
H959        H  0.44778607  0.36161829  0.71073856     0.16920
O960        O  0.43974088  0.36813664  0.79031169    -0.60000
H961        H  0.56019953  0.28144071  0.78923488     0.16940
O962        O  0.56809484  0.27487739  0.70925813    -0.60100
H963        H  0.58663048  0.28491069  0.71432258     0.43930
H964        H  0.42134362  0.02447755  0.78591673     0.43890
C965        C  0.33660466  0.16015623  0.70665444    -0.05170
C966        C  0.63892288  0.18529859  0.72799831    -0.32600
C967        C  0.63821619  0.18535324  0.77111321     0.36650
C968        C  0.33560425  0.16024439  0.79337291    -0.05530
C969        C  0.36660710  0.13493857  0.77205909    -0.32500
C970        C  0.36723330  0.13479031  0.72888670     0.36550
H971        H  0.61506005  0.20450249  0.71108053     0.16920
O972        O  0.60732664  0.20980174  0.79131060    -0.60000
H973        H  0.39045779  0.11559278  0.78896263     0.16940
O974        O  0.39827541  0.11062810  0.70868248    -0.60100
H975        H  0.39412563  0.08810446  0.70404869     0.43930
H976        H  0.59142101  0.19650285  0.79483333     0.43890
O977        O  0.43019301  0.63279424  0.08291458    -0.75000
O978        O  0.42752812  0.34835033  0.04423565    -0.53910
C979        C  0.44196888  0.65702131  0.07245708     0.78730
O980        O  0.36029647  0.56819457  0.41504595    -0.59600
O981        O  0.64609352  0.57008614  0.45544292    -0.52630
C982        C  0.66960672  0.55634966  0.42612869     0.70740
O983        O  0.42983114  0.63245624  0.41713917    -0.74160
O984        O  0.42740818  0.34803840  0.45581858    -0.54720
C985        C  0.44167332  0.65668733  0.42759224     0.76750
O986        O  0.36075203  0.56839869  0.08522105    -0.59300
O987        O  0.64628203  0.57029578  0.04483753    -0.52420
C988        C  0.66999376  0.55655195  0.07413032     0.73340
Zr989      Zr  0.38148400  0.61461941  0.06175318     2.54710
O990        O  0.43742314  0.55683347  0.05945496    -0.79870
O991        O  0.38078870  0.61597925  0.13683972    -0.93290
Zr992      Zr  0.38147570  0.61416342  0.43870859     2.64680
O993        O  0.43772472  0.55664021  0.44172020    -0.98240
O994        O  0.38170602  0.61476642  0.36365190    -0.80300
O995        O  0.40157436  0.63258660  0.50021406    -0.83660
O996        O  0.36333298  0.59440060  0.50025933    -2.18370
O997        O  0.57605631  0.35366180  0.08488791    -0.67050
O998        O  0.57781205  0.63932801  0.04441844    -0.51610
C999        C  0.56417475  0.32959303  0.07369846     0.71720
O1000       O  0.64195023  0.42140085  0.41617969    -0.59960
O1001       O  0.35762226  0.41843741  0.45524735    -0.51930
C1002       C  0.33321100  0.43277899  0.42669819     0.73520
O1003       O  0.57574460  0.35324704  0.41481888    -0.71350
O1004       O  0.57766044  0.63905615  0.45542804    -0.50030
C1005       C  0.56388049  0.32924518  0.42608739     0.74910
O1006       O  0.64246810  0.42154128  0.08359244    -0.66680
O1007       O  0.35781619  0.41864607  0.04443220    -0.53880
C1008       C  0.33363528  0.43295004  0.07305387     0.73290
Zr1009     Zr  0.62239961  0.37437983  0.06116862     2.77540
O1010       O  0.56562839  0.43129992  0.05657887    -0.97430
O1011       O  0.62197675  0.37593939  0.13618015    -0.78250
Zr1012     Zr  0.62240517  0.37387498  0.43820285     2.70070
O1013       O  0.56505087  0.43024293  0.44145584    -0.79500
O1014       O  0.62366753  0.37448991  0.36316440    -0.98580
Zr1015     Zr  0.37371538  0.36518889  0.49996324     2.21500
Zr1016     Zr  0.63076358  0.62325191  0.99999098     2.11130
O1017       O  0.60236841  0.35594017  0.99970735    -2.47270
O1018       O  0.64106068  0.39390990  0.99966477    -0.79290
O1019       O  0.64921688  0.64205253  0.06234927    -0.71490
O1020       O  0.35471013  0.34643340  0.43772744    -2.32440
O1021       O  0.35473196  0.34689246  0.06226974    -2.28650
O1022       O  0.64919434  0.64154564  0.43752946    -0.73250
H1023       H  0.37260461  0.56773513  0.50040252     0.78750
H1024       H  0.36338278  0.35486365  0.41388776     0.79840
H1025       H  0.57568914  0.36539313  0.99957566     0.82060
H1026       H  0.36345697  0.35542300  0.08611097     0.79670
H1027       H  0.37090096  0.64134726  0.35614118     0.42710
H1028       H  0.62795438  0.34907082  0.35489495     0.41680
H1029       H  0.56906778  0.44472510  0.46421339     0.41350
H1030       H  0.54749407  0.42395931  0.04299425     0.39290
H1031       H  0.63587115  0.34971013  0.14447374     0.42420
H1032       H  0.37873522  0.64087181  0.14427843     0.37200
H1033       H  0.45020461  0.55868331  0.03404342     0.43320
H1034       H  0.43044678  0.53897469  0.45628981     0.39730
H1035       H  0.55690898  0.43677211  0.08540949     0.44650
H1036       H  0.40626171  0.59878405  0.14510645     0.43380
H1037       H  0.44186707  0.54766613  0.41287678     0.43510
H1038       H  0.59775546  0.39016572  0.35486181     0.43870
C1039       C  0.33647024  0.49377515  0.16119339     0.03420
C1040       C  0.33730775  0.52392725  0.13978818    -0.12730
C1041       C  0.33635337  0.52467623  0.09654967     0.00920
C1042       C  0.33505347  0.49481236  0.07475202    -0.11250
C1043       C  0.33434811  0.46449989  0.09594711     0.03410
C1044       C  0.33475456  0.46423788  0.13918864    -0.10670
H1045       H  0.33828761  0.54692696  0.15679897     0.09010
H1046       H  0.33461423  0.49514609  0.04133205     0.06540
H1047       H  0.33406220  0.44094251  0.15572978     0.06380
C1048       C  0.33549693  0.49379349  0.33882311     0.03420
C1049       C  0.33652911  0.52385713  0.36038035    -0.12730
C1050       C  0.33576776  0.52453895  0.40360560     0.00920
C1051       C  0.33450413  0.49466902  0.42525645    -0.11250
C1052       C  0.33374037  0.46437674  0.40391396     0.03410
C1053       C  0.33401611  0.46414942  0.36066216    -0.10670
H1054       H  0.33750368  0.54685633  0.34348106     0.09010
H1055       H  0.33420317  0.49495013  0.45867639     0.06540
H1056       H  0.33339217  0.44082550  0.34399763     0.06380
C1057       C  0.50480460  0.65564765  0.16066470     0.03420
C1058       C  0.47544635  0.65371077  0.13827638    -0.12730
C1059       C  0.47398777  0.65691857  0.09520825     0.00920
C1060       C  0.50287897  0.66060407  0.07423113    -0.11250
C1061       C  0.53273438  0.66182375  0.09613134     0.03410
C1062       C  0.53318748  0.66020787  0.13930876    -0.10670
H1063       H  0.45326980  0.65047542  0.15446445     0.09010
H1064       H  0.50224930  0.66231384  0.04086463     0.06540
H1065       H  0.55580221  0.66215646  0.15614552     0.06380
C1066       C  0.50335533  0.65626148  0.33920132     0.03420
C1067       C  0.47453210  0.65361911  0.36168374    -0.12730
C1068       C  0.47349382  0.65664006  0.40477124     0.00920
C1069       C  0.50254489  0.66031980  0.42569079    -0.11250
C1070       C  0.53222603  0.66155835  0.40372657     0.03410
C1071       C  0.53220090  0.66023259  0.36053420    -0.10670
H1072       H  0.45247357  0.64990894  0.34563475     0.09010
H1073       H  0.50221751  0.66191854  0.45906487     0.06540
H1074       H  0.55485407  0.66183205  0.34359578     0.06380
C1075       C  0.50473527  0.65455374  0.20637455    -0.05200
C1076       C  0.47232038  0.67702608  0.22764222    -0.32600
C1077       C  0.47132814  0.67749544  0.27073120     0.36650
C1078       C  0.50323776  0.65523094  0.29347958    -0.05530
C1079       C  0.53558041  0.63238008  0.27224248    -0.32500
C1080       C  0.53652837  0.63190978  0.22905251     0.36550
H1081       H  0.44778623  0.69495163  0.21073858     0.16920
O1082       O  0.43974104  0.70147001  0.29031171    -0.60000
H1083       H  0.56019958  0.61477376  0.28923491     0.16940
O1084       O  0.56809488  0.60821043  0.20925816    -0.60100
H1085       H  0.58663057  0.61824367  0.21432255     0.43930
H1086       H  0.42134350  0.35781088  0.28591677     0.43890
C1087       C  0.33660449  0.49348973  0.20665445    -0.05170
C1088       C  0.63892220  0.51863121  0.22799828    -0.32600
C1089       C  0.63821552  0.51868586  0.27111319     0.36650
C1090       C  0.33560408  0.49357788  0.29337289    -0.05530
C1091       C  0.36660751  0.46827301  0.27205910    -0.32500
C1092       C  0.36723370  0.46812477  0.22888671     0.36550
H1093       H  0.61505899  0.53783445  0.21108049     0.16920
O1094       O  0.60732552  0.54313355  0.29131058    -0.60000
H1095       H  0.39045861  0.44892793  0.28896265     0.16940
O1096       O  0.39827633  0.44396352  0.20868250    -0.60100
H1097       H  0.39412739  0.42143949  0.20404805     0.43930
H1098       H  0.59142067  0.52983382  0.29483326     0.43890
O1099       O  0.43019303  0.63279424  0.58291458    -0.75000
O1100       O  0.42752813  0.34835033  0.54423565    -0.53910
C1101       C  0.44196889  0.65702131  0.57245708     0.78730
O1102       O  0.36029646  0.56819455  0.91504595    -0.59600
O1103       O  0.64609350  0.57008613  0.95544293    -0.52630
C1104       C  0.66960671  0.55634964  0.92612870     0.70740
O1105       O  0.42983113  0.63245623  0.91713916    -0.74160
O1106       O  0.42740817  0.34803839  0.95581858    -0.54720
C1107       C  0.44167331  0.65668731  0.92759223     0.76750
O1108       O  0.36075203  0.56839869  0.58522105    -0.59300
O1109       O  0.64628204  0.57029579  0.54483753    -0.52420
C1110       C  0.66999377  0.55655196  0.57413032     0.73340
Zr1111     Zr  0.38148401  0.61461941  0.56175318     2.54710
O1112       O  0.43742315  0.55683347  0.55945496    -0.79870
O1113       O  0.38078872  0.61597924  0.63683973    -0.93290
Zr1114     Zr  0.38147570  0.61416340  0.93870858     2.64680
O1115       O  0.43772471  0.55664019  0.94172022    -0.98240
O1116       O  0.38170604  0.61476638  0.86365190    -0.80300
O1117       O  0.40157435  0.63258659  0.00021406    -0.83660
O1118       O  0.36333298  0.59440059  0.00025933    -2.18370
O1119       O  0.57605632  0.35366179  0.58488792    -0.67050
O1120       O  0.57781206  0.63932802  0.54441844    -0.51610
C1121       C  0.56417477  0.32959302  0.57369847     0.71720
O1122       O  0.64195023  0.42140083  0.91617970    -0.59960
O1123       O  0.35762225  0.41843741  0.95524735    -0.51930
C1124       C  0.33321099  0.43277898  0.92669820     0.73520
O1125       O  0.57574459  0.35324702  0.91481888    -0.71350
O1126       O  0.57766043  0.63905614  0.95542805    -0.50030
C1127       C  0.56388049  0.32924516  0.92608739     0.74910
O1128       O  0.64246810  0.42154129  0.58359243    -0.66680
O1129       O  0.35781620  0.41864608  0.54443219    -0.53880
C1130       C  0.33363528  0.43295004  0.57305386     0.73290
Zr1131     Zr  0.62239961  0.37437983  0.56116863     2.77540
O1132       O  0.56562838  0.43129991  0.55657889    -0.97430
O1133       O  0.62197678  0.37593938  0.63618016    -0.78250
Zr1134     Zr  0.62240516  0.37387496  0.93820284     2.70070
O1135       O  0.56505086  0.43024291  0.94145582    -0.79500
O1136       O  0.62366754  0.37448988  0.86316440    -0.98580
Zr1137     Zr  0.37371537  0.36518888  0.99996325     2.21500
Zr1138     Zr  0.63076358  0.62325192  0.49999098     2.11130
O1139       O  0.60236842  0.35594017  0.49970735    -2.47270
O1140       O  0.64106069  0.39390991  0.49966477    -0.79290
O1141       O  0.64921689  0.64205254  0.56234927    -0.71490
O1142       O  0.35471013  0.34643338  0.93772745    -2.32440
O1143       O  0.35473198  0.34689245  0.56226973    -2.28650
O1144       O  0.64919433  0.64154562  0.93752946    -0.73250
H1145       H  0.37260460  0.56773512  0.00040252     0.78750
H1146       H  0.36338278  0.35486363  0.91388776     0.79840
H1147       H  0.57568915  0.36539313  0.49957567     0.82060
H1148       H  0.36345699  0.35542299  0.58611096     0.79670
H1149       H  0.37090092  0.64134722  0.85614116     0.42710
H1150       H  0.62795438  0.34907079  0.85489495     0.41680
H1151       H  0.56906777  0.44472508  0.96421337     0.41350
H1152       H  0.54749406  0.42395930  0.54299428     0.39290
H1153       H  0.63587119  0.34971013  0.64447375     0.42420
H1154       H  0.37873524  0.64087180  0.64427844     0.37200
H1155       H  0.45020460  0.55868331  0.53404341     0.43320
H1156       H  0.43044676  0.53897468  0.95628983     0.39730
H1157       H  0.55690898  0.43677210  0.58540951     0.44650
H1158       H  0.40626173  0.59878405  0.64510645     0.43380
H1159       H  0.44186707  0.54766611  0.91287680     0.43510
H1160       H  0.59775547  0.39016569  0.85486180     0.43870
C1161       C  0.33647026  0.49377514  0.66119338     0.03420
C1162       C  0.33730777  0.52392724  0.63978818    -0.12730
C1163       C  0.33635337  0.52467623  0.59654967     0.00920
C1164       C  0.33505347  0.49481237  0.57475202    -0.11250
C1165       C  0.33434811  0.46449989  0.59594710     0.03410
C1166       C  0.33475457  0.46423787  0.63918863    -0.10670
H1167       H  0.33828763  0.54692695  0.65679898     0.09010
H1168       H  0.33461423  0.49514610  0.54133205     0.06540
H1169       H  0.33406220  0.44094251  0.65572976     0.06380
C1170       C  0.33549694  0.49379346  0.83882312     0.03420
C1171       C  0.33652911  0.52385711  0.86038036    -0.12730
C1172       C  0.33576775  0.52453893  0.90360560     0.00920
C1173       C  0.33450411  0.49466902  0.92525646    -0.11250
C1174       C  0.33374035  0.46437673  0.90391397     0.03410
C1175       C  0.33401611  0.46414940  0.86066217    -0.10670
H1176       H  0.33750368  0.54685631  0.84348107     0.09010
H1177       H  0.33420314  0.49495012  0.95867640     0.06540
H1178       H  0.33339217  0.44082548  0.84399764     0.06380
C1179       C  0.50480458  0.65564770  0.66066469     0.03420
C1180       C  0.47544635  0.65371080  0.63827638    -0.12730
C1181       C  0.47398777  0.65691857  0.59520825     0.00920
C1182       C  0.50287899  0.66060406  0.57423113    -0.11250
C1183       C  0.53273438  0.66182377  0.59613133     0.03410
C1184       C  0.53318747  0.66020791  0.63930875    -0.10670
H1185       H  0.45326979  0.65047546  0.65446444     0.09010
H1186       H  0.50224932  0.66231381  0.54086463     0.06540
H1187       H  0.55580219  0.66215653  0.65614551     0.06380
C1188       C  0.50335530  0.65626151  0.83920131     0.03420
C1189       C  0.47453208  0.65361912  0.86168373    -0.12730
C1190       C  0.47349381  0.65664004  0.90477124     0.00920
C1191       C  0.50254489  0.66031977  0.92569079    -0.11250
C1192       C  0.53222602  0.66155834  0.90372657     0.03410
C1193       C  0.53220087  0.66023261  0.86053420    -0.10670
H1194       H  0.45247356  0.64990896  0.84563474     0.09010
H1195       H  0.50221752  0.66191849  0.95906487     0.06540
H1196       H  0.55485404  0.66183209  0.84359579     0.06380
C1197       C  0.50473525  0.65455380  0.70637455    -0.05200
C1198       C  0.47232035  0.67702613  0.72764221    -0.32600
C1199       C  0.47132811  0.67749548  0.77073120     0.36650
C1200       C  0.50323773  0.65523099  0.79347957    -0.05530
C1201       C  0.53558039  0.63238015  0.77224248    -0.32500
C1202       C  0.53652835  0.63190986  0.72905251     0.36550
H1203       H  0.44778620  0.69495167  0.71073857     0.16920
O1204       O  0.43974101  0.70147003  0.79031171    -0.60000
H1205       H  0.56019956  0.61477385  0.78923491     0.16940
O1206       O  0.56809487  0.60821052  0.70925816    -0.60100
H1207       H  0.58663055  0.61824378  0.71432257     0.43930
H1208       H  0.42134351  0.35781083  0.78591676     0.43890
C1209       C  0.33660450  0.49348971  0.70665445    -0.05170
C1210       C  0.63892233  0.51863140  0.72799829    -0.32600
C1211       C  0.63821564  0.51868604  0.77111319     0.36650
C1212       C  0.33560408  0.49357785  0.79337290    -0.05530
C1213       C  0.36660740  0.46827280  0.77205910    -0.32500
C1214       C  0.36723361  0.46812456  0.72888671     0.36550
H1215       H  0.61505920  0.53783478  0.71108049     0.16920
O1216       O  0.60732574  0.54313391  0.79131058    -0.60000
H1217       H  0.39045843  0.44892759  0.78896265     0.16940
O1218       O  0.39827613  0.44396313  0.70868250    -0.60100
H1219       H  0.39412704  0.42143916  0.70404819     0.43930
H1220       H  0.59142070  0.52983438  0.79483326     0.43890
O1221       O  0.43019301  0.96612757  0.08291458    -0.75000
O1222       O  0.42752815  0.68168366  0.04423568    -0.53910
C1223       C  0.44196887  0.99035464  0.07245708     0.78730
O1224       O  0.36029647  0.90152788  0.41504594    -0.59600
O1225       O  0.64609353  0.90341946  0.45544292    -0.52630
C1226       C  0.66960673  0.88968297  0.42612868     0.70740
O1227       O  0.42983115  0.96578954  0.41713915    -0.74160
O1228       O  0.42740820  0.68137175  0.45581861    -0.54720
C1229       C  0.44167333  0.99002062  0.42759222     0.76750
O1230       O  0.36075202  0.90173202  0.08522106    -0.59300
O1231       O  0.64628202  0.90362911  0.04483753    -0.52420
C1232       C  0.66999375  0.88988529  0.07413032     0.73340
Zr1233     Zr  0.38148400  0.94795274  0.06175318     2.54710
O1234       O  0.43742313  0.89016680  0.05945497    -0.79870
O1235       O  0.38078870  0.94931257  0.13683973    -0.93290
Zr1236     Zr  0.38147571  0.94749672  0.43870857     2.64680
O1237       O  0.43772471  0.88997350  0.44172021    -0.98240
O1238       O  0.38170605  0.94809971  0.36365189    -0.80300
O1239       O  0.40157437  0.96591991  0.50021405    -0.83660
O1240       O  0.36333298  0.92773392  0.50025932    -2.18370
O1241       O  0.57605636  0.68699509  0.08488794    -0.67050
O1242       O  0.57781204  0.97266135  0.04441843    -0.51610
C1243       C  0.56417481  0.66292631  0.07369849     0.71720
O1244       O  0.64195027  0.75473416  0.41617971    -0.59960
O1245       O  0.35762229  0.75177074  0.45524738    -0.51930
C1246       C  0.33321102  0.76611231  0.42669821     0.73520
O1247       O  0.57574463  0.68658037  0.41481890    -0.71350
O1248       O  0.57766044  0.97238946  0.45542803    -0.50030
C1249       C  0.56388053  0.66257850  0.42608740     0.74910
O1250       O  0.64246812  0.75487460  0.08359244    -0.66680
O1251       O  0.35781621  0.75197940  0.04443221    -0.53880
C1252       C  0.33363529  0.76628336  0.07305388     0.73290
Zr1253     Zr  0.62239964  0.70771314  0.06116864     2.77540
O1254       O  0.56562841  0.76463322  0.05657891    -0.97430
O1255       O  0.62197681  0.70927269  0.13618017    -0.78250
Zr1256     Zr  0.62240520  0.70720830  0.43820287     2.70070
O1257       O  0.56505091  0.76357626  0.44145583    -0.79500
O1258       O  0.62366759  0.70782321  0.36316442    -0.98580
Zr1259     Zr  0.37371541  0.69852222  0.49996328     2.21500
Zr1260     Zr  0.63076357  0.95658523  0.99999097     2.11130
O1261       O  0.60236844  0.68927349  0.99970736    -2.47270
O1262       O  0.64106071  0.72724322  0.99966479    -0.79290
O1263       O  0.64921688  0.97538585  0.06234927    -0.71490
O1264       O  0.35471016  0.67976673  0.43772748    -2.32440
O1265       O  0.35473200  0.68022578  0.06226975    -2.28650
O1266       O  0.64919434  0.97487895  0.43752944    -0.73250
H1267       H  0.37260460  0.90106845  0.50040251     0.78750
H1268       H  0.36338281  0.68819698  0.41388779     0.79840
H1269       H  0.57568917  0.69872645  0.99957568     0.82060
H1270       H  0.36345700  0.68875632  0.08611098     0.79670
H1271       H  0.37090090  0.97468054  0.35614115     0.42710
H1272       H  0.62795443  0.68240412  0.35489498     0.41680
H1273       H  0.56906780  0.77805841  0.46421341     0.41350
H1274       H  0.54749409  0.75729261  0.04299428     0.39290
H1275       H  0.63587118  0.68304344  0.14447376     0.42420
H1276       H  0.37873521  0.97420514  0.14427844     0.37200
H1277       H  0.45020460  0.89201664  0.03404343     0.43320
H1278       H  0.43044677  0.87230800  0.45628981     0.39730
H1279       H  0.55690899  0.77010539  0.08540953     0.44650
H1280       H  0.40626172  0.93211739  0.14510645     0.43380
H1281       H  0.44186707  0.88099943  0.41287678     0.43510
H1282       H  0.59775552  0.72349902  0.35486182     0.43870
C1283       C  0.33647026  0.82710847  0.16119339     0.03420
C1284       C  0.33730776  0.85726057  0.13978819    -0.12730
C1285       C  0.33635336  0.85800957  0.09654967     0.00920
C1286       C  0.33505346  0.82814570  0.07475202    -0.11250
C1287       C  0.33434811  0.79783322  0.09594711     0.03410
C1288       C  0.33475458  0.79757120  0.13918864    -0.10670
H1289       H  0.33828761  0.88026028  0.15679898     0.09010
H1290       H  0.33461422  0.82847943  0.04133206     0.06540
H1291       H  0.33406222  0.77427583  0.15572978     0.06380
C1292       C  0.33549695  0.82712679  0.33882312     0.03420
C1293       C  0.33652911  0.85719044  0.36038036    -0.12730
C1294       C  0.33576776  0.85787227  0.40360560     0.00920
C1295       C  0.33450413  0.82800234  0.42525646    -0.11250
C1296       C  0.33374039  0.79771005  0.40391398     0.03410
C1297       C  0.33401614  0.79748272  0.36066218    -0.10670
H1298       H  0.33750368  0.88018964  0.34348107     0.09010
H1299       H  0.33420318  0.82828345  0.45867641     0.06540
H1300       H  0.33339221  0.77415880  0.34399765     0.06380
C1301       C  0.50480457  0.98898103  0.16066468     0.03420
C1302       C  0.47544634  0.98704413  0.13827637    -0.12730
C1303       C  0.47398776  0.99025190  0.09520825     0.00920
C1304       C  0.50287897  0.99393739  0.07423112    -0.11250
C1305       C  0.53273436  0.99515709  0.09613132     0.03410
C1306       C  0.53318746  0.99354124  0.13930874    -0.10670
H1307       H  0.45326978  0.98380878  0.15446444     0.09010
H1308       H  0.50224930  0.99564714  0.04086462     0.06540
H1309       H  0.55580218  0.99548985  0.15614550     0.06380
C1310       C  0.50335532  0.98959482  0.33920130     0.03420
C1311       C  0.47453210  0.98695244  0.36168372    -0.12730
C1312       C  0.47349383  0.98997336  0.40477122     0.00920
C1313       C  0.50254490  0.99365309  0.42569077    -0.11250
C1314       C  0.53222603  0.99489166  0.40372655     0.03410
C1315       C  0.53220089  0.99356593  0.36053419    -0.10670
H1316       H  0.45247357  0.98324227  0.34563473     0.09010
H1317       H  0.50221754  0.99525181  0.45906485     0.06540
H1318       H  0.55485405  0.99516541  0.34359577     0.06380
C1319       C  0.50473525  0.98788712  0.20637454    -0.05200
C1320       C  0.47232035  0.01035945  0.22764221    -0.32600
C1321       C  0.47132812  0.01082880  0.27073119     0.36650
C1322       C  0.50323774  0.98856430  0.29347956    -0.05530
C1323       C  0.53558039  0.96571346  0.27224246    -0.32500
C1324       C  0.53652835  0.96524317  0.22905250     0.36550
H1325       H  0.44778620  0.02828499  0.21073857     0.16920
O1326       O  0.43974101  0.03480335  0.29031171    -0.60000
H1327       H  0.56019956  0.94810715  0.28923489     0.16940
O1328       O  0.56809486  0.94154383  0.20925814    -0.60100
H1329       H  0.58663054  0.95157709  0.21432254     0.43930
H1330       H  0.42134362  0.69114427  0.28591680     0.43890
C1331       C  0.33660451  0.82682304  0.20665445    -0.05170
C1332       C  0.63892233  0.85196469  0.22799829    -0.32600
C1333       C  0.63821565  0.85201933  0.27111320     0.36650
C1334       C  0.33560409  0.82691118  0.29337290    -0.05530
C1335       C  0.36660743  0.80160615  0.27205910    -0.32500
C1336       C  0.36723363  0.80145792  0.22888672     0.36550
H1337       H  0.61505919  0.87116806  0.21108051     0.16920
O1338       O  0.60732574  0.87646717  0.29131059    -0.60000
H1339       H  0.39045846  0.78226096  0.28896265     0.16940
O1340       O  0.39827617  0.77729652  0.20868250    -0.60100
H1341       H  0.39412712  0.75477252  0.20404821     0.43930
H1342       H  0.59142072  0.86316762  0.29483328     0.43890
O1343       O  0.43019302  0.96612756  0.58291457    -0.75000
O1344       O  0.42752816  0.68168366  0.54423569    -0.53910
C1345       C  0.44196889  0.99035462  0.57245707     0.78730
O1346       O  0.36029647  0.90152789  0.91504596    -0.59600
O1347       O  0.64609351  0.90341946  0.95544293    -0.52630
C1348       C  0.66960672  0.88968297  0.92612870     0.70740
O1349       O  0.42983112  0.96578956  0.91713916    -0.74160
O1350       O  0.42740820  0.68137173  0.95581859    -0.54720
C1351       C  0.44167330  0.99002065  0.92759223     0.76750
O1352       O  0.36075202  0.90173203  0.58522105    -0.59300
O1353       O  0.64628204  0.90362911  0.54483753    -0.52420
C1354       C  0.66999376  0.88988529  0.57413032     0.73340
Zr1355     Zr  0.38148401  0.94795273  0.56175317     2.54710
O1356       O  0.43742314  0.89016678  0.55945496    -0.79870
O1357       O  0.38078871  0.94931257  0.63683971    -0.93290
Zr1358     Zr  0.38147569  0.94749674  0.93870859     2.64680
O1359       O  0.43772471  0.88997353  0.94172020    -0.98240
O1360       O  0.38170600  0.94809974  0.86365190    -0.80300
O1361       O  0.40157436  0.96591992  0.00021406    -0.83660
O1362       O  0.36333297  0.92773393  0.00025934    -2.18370
O1363       O  0.57605637  0.68699510  0.58488794    -0.67050
O1364       O  0.57781206  0.97266133  0.54441842    -0.51610
C1365       C  0.56417482  0.66292632  0.57369849     0.71720
O1366       O  0.64195026  0.75473415  0.91617970    -0.59960
O1367       O  0.35762228  0.75177073  0.95524736    -0.51930
C1368       C  0.33321101  0.76611231  0.92669820     0.73520
O1369       O  0.57574462  0.68658035  0.91481890    -0.71350
O1370       O  0.57766043  0.97238947  0.95542804    -0.50030
C1371       C  0.56388052  0.66257849  0.92608741     0.74910
O1372       O  0.64246812  0.75487461  0.58359246    -0.66680
O1373       O  0.35781621  0.75197941  0.54443223    -0.53880
C1374       C  0.33363529  0.76628337  0.57305390     0.73290
Zr1375     Zr  0.62239964  0.70771315  0.56116865     2.77540
O1376       O  0.56562841  0.76463322  0.55657893    -0.97430
O1377       O  0.62197682  0.70927268  0.63618018    -0.78250
Zr1378     Zr  0.62240520  0.70720828  0.93820286     2.70070
O1379       O  0.56505090  0.76357624  0.94145582    -0.79500
O1380       O  0.62366758  0.70782319  0.86316441    -0.98580
Zr1381     Zr  0.37371541  0.69852221  0.99996326     2.21500
Zr1382     Zr  0.63076359  0.95658523  0.49999096     2.11130
O1383       O  0.60236845  0.68927350  0.49970737    -2.47270
O1384       O  0.64106072  0.72724323  0.49966480    -0.79290
O1385       O  0.64921689  0.97538585  0.56234926    -0.71490
O1386       O  0.35471016  0.67976671  0.93772746    -2.32440
O1387       O  0.35473200  0.68022578  0.56226977    -2.28650
O1388       O  0.64919433  0.97487894  0.93752945    -0.73250
H1389       H  0.37260459  0.90106845  0.00040252     0.78750
H1390       H  0.36338281  0.68819697  0.91388778     0.79840
H1391       H  0.57568918  0.69872646  0.49957569     0.82060
H1392       H  0.36345701  0.68875632  0.58611100     0.79670
H1393       H  0.37090096  0.97468057  0.85614118     0.42710
H1394       H  0.62795442  0.68240410  0.85489497     0.41680
H1395       H  0.56906780  0.77805840  0.96421340     0.41350
H1396       H  0.54749410  0.75729263  0.54299427     0.39290
H1397       H  0.63587119  0.68304342  0.64447376     0.42420
H1398       H  0.37873523  0.97420514  0.64427842     0.37200
H1399       H  0.45020460  0.89201662  0.53404342     0.43320
H1400       H  0.43044678  0.87230802  0.95628982     0.39730
H1401       H  0.55690899  0.77010538  0.58540955     0.44650
H1402       H  0.40626172  0.93211738  0.64510644     0.43380
H1403       H  0.44186705  0.88099945  0.91287677     0.43510
H1404       H  0.59775552  0.72349900  0.85486181     0.43870
C1405       C  0.33647022  0.82710851  0.66119340     0.03420
C1406       C  0.33730772  0.85726061  0.63978820    -0.12730
C1407       C  0.33635335  0.85800958  0.59654968     0.00920
C1408       C  0.33505346  0.82814571  0.57475204    -0.11250
C1409       C  0.33434810  0.79783324  0.59594713     0.03410
C1410       C  0.33475455  0.79757124  0.63918867    -0.10670
H1411       H  0.33828757  0.88026032  0.65679899     0.09010
H1412       H  0.33461423  0.82847943  0.54133207     0.06540
H1413       H  0.33406219  0.77427587  0.65572981     0.06380
C1414       C  0.33549691  0.82712682  0.83882312     0.03420
C1415       C  0.33652908  0.85719046  0.86038036    -0.12730
C1416       C  0.33576775  0.85787227  0.90360561     0.00920
C1417       C  0.33450413  0.82800234  0.92525646    -0.11250
C1418       C  0.33374037  0.79771006  0.90391397     0.03410
C1419       C  0.33401609  0.79748275  0.86066217    -0.10670
H1420       H  0.33750364  0.88018967  0.84348107     0.09010
H1421       H  0.33420318  0.82828344  0.95867640     0.06540
H1422       H  0.33339215  0.77415883  0.84399763     0.06380
C1423       C  0.50480462  0.98898096  0.66066468     0.03420
C1424       C  0.47544637  0.98704407  0.63827636    -0.12730
C1425       C  0.47398778  0.99025188  0.59520824     0.00920
C1426       C  0.50287899  0.99393738  0.57423112    -0.11250
C1427       C  0.53273439  0.99515706  0.59613132     0.03410
C1428       C  0.53318750  0.99354118  0.63930874    -0.10670
H1429       H  0.45326982  0.98380872  0.65446443     0.09010
H1430       H  0.50224931  0.99564715  0.54086462     0.06540
H1431       H  0.55580223  0.99548978  0.65614550     0.06380
C1432       C  0.50335532  0.98959479  0.83920131     0.03420
C1433       C  0.47453209  0.98695243  0.86168372    -0.12730
C1434       C  0.47349381  0.98997338  0.90477123     0.00920
C1435       C  0.50254488  0.99365312  0.92569078    -0.11250
C1436       C  0.53222602  0.99489167  0.90372656     0.03410
C1437       C  0.53220089  0.99356591  0.86053419    -0.10670
H1438       H  0.45247356  0.98324226  0.84563474     0.09010
H1439       H  0.50221750  0.99525185  0.95906486     0.06540
H1440       H  0.55485406  0.99516537  0.84359578     0.06380
C1441       C  0.50473529  0.98788705  0.70637454    -0.05200
C1442       C  0.47232039  0.01035938  0.72764220    -0.32600
C1443       C  0.47132814  0.01082874  0.77073118     0.36650
C1444       C  0.50323776  0.98856425  0.79347957    -0.05530
C1445       C  0.53558042  0.96571341  0.77224247    -0.32500
C1446       C  0.53652839  0.96524311  0.72905251     0.36550
H1447       H  0.44778625  0.02828491  0.71073855     0.16920
O1448       O  0.43974104  0.03480329  0.79031168    -0.60000
H1449       H  0.56019959  0.94810710  0.78923491     0.16940
O1450       O  0.56809491  0.94154377  0.70925816    -0.60100
H1451       H  0.58663058  0.95157703  0.71432256     0.43930
H1452       H  0.42134360  0.69114427  0.78591680     0.43890
C1453       C  0.33660446  0.82682309  0.70665446    -0.05170
C1454       C  0.63892223  0.85196459  0.72799830    -0.32600
C1455       C  0.63821555  0.85201922  0.77111320     0.36650
C1456       C  0.33560405  0.82691122  0.79337291    -0.05530
C1457       C  0.36660752  0.80160642  0.77205911    -0.32500
C1458       C  0.36723372  0.80145820  0.72888672     0.36550
H1459       H  0.61505902  0.87116785  0.71108051     0.16920
O1460       O  0.60732556  0.87646694  0.79131060    -0.60000
H1461       H  0.39045866  0.78226140  0.78896266     0.16940
O1462       O  0.39827638  0.77729703  0.70868251    -0.60100
H1463       H  0.39412753  0.75477294  0.70404806     0.43930
H1464       H  0.59142067  0.86316725  0.79483327     0.43890
O1465       O  0.76352631  0.29946092  0.08291456    -0.75000
O1466       O  0.76086149  0.01501697  0.04423568    -0.53910
C1467       C  0.77530217  0.32368799  0.07245705     0.78730
O1468       O  0.69362979  0.23486123  0.41504596    -0.59600
O1469       O  0.97942683  0.23675280  0.45544292    -0.52630
C1470       C  0.00294005  0.22301631  0.42612869     0.70740
O1471       O  0.76316444  0.29912291  0.41713915    -0.74160
O1472       O  0.76074154  0.01470506  0.45581859    -0.54720
C1473       C  0.77500662  0.32335400  0.42759222     0.76750
O1474       O  0.69408531  0.23506537  0.08522105    -0.59300
O1475       O  0.97961533  0.23696246  0.04483754    -0.52420
C1476       C  0.00332706  0.22321863  0.07413032     0.73340
Zr1477     Zr  0.71481729  0.28128609  0.06175317     2.54710
O1478       O  0.77075643  0.22350014  0.05945494    -0.79870
O1479       O  0.71412200  0.28264592  0.13683971    -0.93290
Zr1480     Zr  0.71480900  0.28083010  0.43870857     2.64680
O1481       O  0.77105801  0.22330689  0.44172016    -0.98240
O1482       O  0.71503928  0.28143312  0.36365188    -0.80300
O1483       O  0.73490765  0.29925329  0.50021404    -0.83660
O1484       O  0.69666628  0.26106729  0.50025931    -2.18370
O1485       O  0.90938968  0.02032842  0.08488793    -0.67050
O1486       O  0.91114534  0.30599470  0.04441843    -0.51610
C1487       C  0.89750813  0.99625965  0.07369847     0.71720
O1488       O  0.97528361  0.08806748  0.41617970    -0.59960
O1489       O  0.69095564  0.08510405  0.45524739    -0.51930
C1490       C  0.66654438  0.09944563  0.42669824     0.73520
O1491       O  0.90907796  0.01991369  0.41481888    -0.71350
O1492       O  0.91099374  0.30572282  0.45542802    -0.50030
C1493       C  0.89721385  0.99591183  0.42608739     0.74910
O1494       O  0.97580143  0.08820794  0.08359243    -0.66680
O1495       O  0.69114954  0.08531273  0.04443216    -0.53880
C1496       C  0.66696861  0.09961670  0.07305381     0.73290
Zr1497     Zr  0.95573296  0.04104648  0.06116864     2.77540
O1498       O  0.89896173  0.09796655  0.05657889    -0.97430
O1499       O  0.95531011  0.04260604  0.13618016    -0.78250
Zr1500     Zr  0.95573854  0.04054162  0.43820284     2.70070
O1501       O  0.89838425  0.09690958  0.44145583    -0.79500
O1502       O  0.95700090  0.04115655  0.36316439    -0.98580
Zr1503     Zr  0.70704875  0.03185552  0.49996326     2.21500
Zr1504     Zr  0.96409688  0.28991858  0.99999097     2.11130
O1505       O  0.93570177  0.02260682  0.99970735    -2.47270
O1506       O  0.97439405  0.06057654  0.99966479    -0.79290
O1507       O  0.98255018  0.30871921  0.06234926    -0.71490
O1508       O  0.68804349  0.01310005  0.43772745    -2.32440
O1509       O  0.68806533  0.01355910  0.06226975    -2.28650
O1510       O  0.98252764  0.30821230  0.43752943    -0.73250
H1511       H  0.70593790  0.23440181  0.50040250     0.78750
H1512       H  0.69671614  0.02153031  0.41388777     0.79840
H1513       H  0.90902250  0.03205978  0.99957567     0.82060
H1514       H  0.69679033  0.02208965  0.08611098     0.79670
H1515       H  0.70423425  0.30801396  0.35614116     0.42710
H1516       H  0.96128774  0.01573746  0.35489494     0.41680
H1517       H  0.90240115  0.11139173  0.46421341     0.41350
H1518       H  0.88082741  0.09062594  0.04299425     0.39290
H1519       H  0.96920449  0.01637678  0.14447376     0.42420
H1520       H  0.71206851  0.30753849  0.14427842     0.37200
H1521       H  0.78353788  0.22534998  0.03404339     0.43320
H1522       H  0.76378009  0.20564138  0.45628980     0.39730
H1523       H  0.89024231  0.10343873  0.08540951     0.44650
H1524       H  0.73959502  0.26545074  0.14510643     0.43380
H1525       H  0.77520033  0.21433280  0.41287673     0.43510
H1526       H  0.93108884  0.05683237  0.35486180     0.43870
C1527       C  0.66980370  0.16044170  0.16119336     0.03420
C1528       C  0.67064114  0.19059384  0.13978818    -0.12730
C1529       C  0.66968667  0.19134289  0.09654966     0.00920
C1530       C  0.66838676  0.16147905  0.07475199    -0.11250
C1531       C  0.66768145  0.13116655  0.09594705     0.03410
C1532       C  0.66808798  0.13090447  0.13918858    -0.10670
H1533       H  0.67162102  0.21359354  0.15679898     0.09010
H1534       H  0.66794747  0.16181281  0.04133202     0.06540
H1535       H  0.66739561  0.10760908  0.15572968     0.06380
C1536       C  0.66883044  0.16046003  0.33882314     0.03420
C1537       C  0.66986255  0.19052370  0.36038039    -0.12730
C1538       C  0.66910112  0.19120558  0.40360563     0.00920
C1539       C  0.66783745  0.16133568  0.42525649    -0.11250
C1540       C  0.66707377  0.13104335  0.40391402     0.03410
C1541       C  0.66734962  0.13081597  0.36066222    -0.10670
H1542       H  0.67083714  0.21352290  0.34348110     0.09010
H1543       H  0.66753643  0.16161682  0.45867644     0.06540
H1544       H  0.66672572  0.10749202  0.34399771     0.06380
C1545       C  0.83813786  0.32231439  0.16066467     0.03420
C1546       C  0.80877963  0.32037748  0.13827635    -0.12730
C1547       C  0.80732106  0.32358525  0.09520823     0.00920
C1548       C  0.83621227  0.32727075  0.07423110    -0.11250
C1549       C  0.86606766  0.32849046  0.09613131     0.03410
C1550       C  0.86652074  0.32687461  0.13930873    -0.10670
H1551       H  0.78660308  0.31714213  0.15446442     0.09010
H1552       H  0.83558260  0.32898049  0.04086460     0.06540
H1553       H  0.88913546  0.32882323  0.15614549     0.06380
C1554       C  0.83668861  0.32292819  0.33920129     0.03420
C1555       C  0.80786539  0.32028581  0.36168371    -0.12730
C1556       C  0.80682712  0.32330673  0.40477122     0.00920
C1557       C  0.83587820  0.32698646  0.42569077    -0.11250
C1558       C  0.86555933  0.32822502  0.40372655     0.03410
C1559       C  0.86553418  0.32689929  0.36053418    -0.10670
H1560       H  0.78580686  0.31657564  0.34563473     0.09010
H1561       H  0.83555083  0.32858518  0.45906485     0.06540
H1562       H  0.88818735  0.32849877  0.34359576     0.06380
C1563       C  0.83806854  0.32122048  0.20637452    -0.05200
C1564       C  0.80565363  0.34369280  0.22764220    -0.32600
C1565       C  0.80466140  0.34416215  0.27073118     0.36650
C1566       C  0.83657103  0.32189767  0.29347955    -0.05530
C1567       C  0.86891368  0.29904684  0.27224245    -0.32500
C1568       C  0.86986164  0.29857655  0.22905249     0.36550
H1569       H  0.78111948  0.36161833  0.21073856     0.16920
O1570       O  0.77307429  0.36813670  0.29031170    -0.60000
H1571       H  0.89353286  0.28144054  0.28923488     0.16940
O1572       O  0.90142816  0.27487722  0.20925813    -0.60100
H1573       H  0.91996383  0.28491048  0.21432253     0.43930
H1574       H  0.75467694  0.02447758  0.28591674     0.43890
C1575       C  0.66993798  0.16015623  0.20665444    -0.05170
C1576       C  0.97225572  0.18529811  0.22799830    -0.32600
C1577       C  0.97154905  0.18535275  0.27111320     0.36650
C1578       C  0.66893758  0.16024440  0.29337291    -0.05530
C1579       C  0.69994041  0.13493854  0.27205909    -0.32500
C1580       C  0.70056659  0.13479028  0.22888670     0.36550
H1581       H  0.94839262  0.20450155  0.21108051     0.16920
O1582       O  0.94065919  0.20980069  0.29131060    -0.60000
H1583       H  0.72379108  0.11559272  0.28896262     0.16940
O1584       O  0.73160869  0.11062803  0.20868247    -0.60100
H1585       H  0.72745887  0.08810440  0.20404870     0.43930
H1586       H  0.92475409  0.19650123  0.29483329     0.43890
O1587       O  0.76352632  0.29946092  0.58291454    -0.75000
O1588       O  0.76086149  0.01501699  0.54423567    -0.53910
C1589       C  0.77530218  0.32368799  0.57245703     0.78730
O1590       O  0.69362977  0.23486122  0.91504596    -0.59600
O1591       O  0.97942683  0.23675279  0.95544293    -0.52630
C1592       C  0.00294005  0.22301629  0.92612871     0.70740
O1593       O  0.76316444  0.29912288  0.91713915    -0.74160
O1594       O  0.76074154  0.01470504  0.95581859    -0.54720
C1595       C  0.77500662  0.32335396  0.92759222     0.76750
O1596       O  0.69408532  0.23506538  0.58522105    -0.59300
O1597       O  0.97961534  0.23696246  0.54483753    -0.52420
C1598       C  0.00332707  0.22321864  0.57413032     0.73340
Zr1599     Zr  0.71481731  0.28128610  0.56175316     2.54710
O1600       O  0.77075643  0.22350015  0.55945493    -0.79870
O1601       O  0.71412202  0.28264593  0.63683971    -0.93290
Zr1602     Zr  0.71480899  0.28083008  0.93870857     2.64680
O1603       O  0.77105799  0.22330686  0.94172017    -0.98240
O1604       O  0.71503928  0.28143309  0.86365189    -0.80300
O1605       O  0.73490765  0.29925327  0.00021404    -0.83660
O1606       O  0.69666627  0.26106727  0.00025932    -2.18370
O1607       O  0.90938969  0.02032843  0.58488792    -0.67050
O1608       O  0.91114535  0.30599471  0.54441841    -0.51610
C1609       C  0.89750814  0.99625965  0.57369847     0.71720
O1610       O  0.97528362  0.08806747  0.91617974    -0.59960
O1611       O  0.69095564  0.08510404  0.95524738    -0.51930
C1612       C  0.66654438  0.09944561  0.92669823     0.73520
O1613       O  0.90907796  0.01991368  0.91481888    -0.71350
O1614       O  0.91099373  0.30572280  0.95542803    -0.50030
C1615       C  0.89721386  0.99591181  0.92608739     0.74910
O1616       O  0.97580145  0.08820795  0.58359237    -0.66680
O1617       O  0.69114954  0.08531274  0.54443217    -0.53880
C1618       C  0.66696861  0.09961671  0.57305382     0.73290
Zr1619     Zr  0.95573298  0.04104648  0.56116862     2.77540
O1620       O  0.89896174  0.09796655  0.55657893    -0.97430
O1621       O  0.95531018  0.04260601  0.63618015    -0.78250
Zr1622     Zr  0.95573853  0.04054161  0.93820286     2.70070
O1623       O  0.89838423  0.09690957  0.94145579    -0.79500
O1624       O  0.95700094  0.04115652  0.86316441    -0.98580
Zr1625     Zr  0.70704875  0.03185551  0.99996325     2.21500
Zr1626     Zr  0.96409689  0.28991858  0.49999096     2.11130
O1627       O  0.93570178  0.02260683  0.49970734    -2.47270
O1628       O  0.97439406  0.06057654  0.49966477    -0.79290
O1629       O  0.98255020  0.30871921  0.56234925    -0.71490
O1630       O  0.68804349  0.01310004  0.93772745    -2.32440
O1631       O  0.68806533  0.01355911  0.56226975    -2.28650
O1632       O  0.98252764  0.30821229  0.93752945    -0.73250
H1633       H  0.70593789  0.23440180  0.00040251     0.78750
H1634       H  0.69671614  0.02153029  0.91388777     0.79840
H1635       H  0.90902251  0.03205979  0.49957566     0.82060
H1636       H  0.69679033  0.02208966  0.58611098     0.79670
H1637       H  0.70423422  0.30801393  0.85614116     0.42710
H1638       H  0.96128779  0.01573742  0.85489497     0.41680
H1639       H  0.90240110  0.11139171  0.96421339     0.41350
H1640       H  0.88082743  0.09062595  0.54299427     0.39290
H1641       H  0.96920453  0.01637675  0.64447373     0.42420
H1642       H  0.71206855  0.30753850  0.64427841     0.37200
H1643       H  0.78353790  0.22535000  0.53404339     0.43320
H1644       H  0.76378006  0.20564136  0.95628981     0.39730
H1645       H  0.89024232  0.10343869  0.58540954     0.44650
H1646       H  0.73959504  0.26545074  0.64510642     0.43380
H1647       H  0.77520032  0.21433277  0.91287675     0.43510
H1648       H  0.93108887  0.05683233  0.85486180     0.43870
C1649       C  0.66980369  0.16044172  0.66119336     0.03420
C1650       C  0.67064114  0.19059386  0.63978817    -0.12730
C1651       C  0.66968668  0.19134290  0.59654966     0.00920
C1652       C  0.66838676  0.16147905  0.57475199    -0.11250
C1653       C  0.66768144  0.13116656  0.59594706     0.03410
C1654       C  0.66808797  0.13090449  0.63918858    -0.10670
H1655       H  0.67162102  0.21359355  0.65679898     0.09010
H1656       H  0.66794748  0.16181282  0.54133202     0.06540
H1657       H  0.66739560  0.10760911  0.65572969     0.06380
C1658       C  0.66883042  0.16046003  0.83882314     0.03420
C1659       C  0.66986252  0.19052371  0.86038038    -0.12730
C1660       C  0.66910109  0.19120558  0.90360562     0.00920
C1661       C  0.66783744  0.16133567  0.92525649    -0.11250
C1662       C  0.66707376  0.13104335  0.90391401     0.03410
C1663       C  0.66734960  0.13081596  0.86066221    -0.10670
H1664       H  0.67083710  0.21352291  0.84348109     0.09010
H1665       H  0.66753642  0.16161680  0.95867643     0.06540
H1666       H  0.66672571  0.10749202  0.84399769     0.06380
C1667       C  0.83813783  0.32231446  0.66066466     0.03420
C1668       C  0.80877962  0.32037752  0.63827634    -0.12730
C1669       C  0.80732106  0.32358526  0.59520821     0.00920
C1670       C  0.83621228  0.32727074  0.57423108    -0.11250
C1671       C  0.86606766  0.32849047  0.59613129     0.03410
C1672       C  0.86652072  0.32687467  0.63930872    -0.10670
H1673       H  0.78660306  0.31714217  0.65446440     0.09010
H1674       H  0.83558263  0.32898046  0.54086458     0.06540
H1675       H  0.88913543  0.32882332  0.65614548     0.06380
C1676       C  0.83668857  0.32292823  0.83920129     0.03420
C1677       C  0.80786537  0.32028581  0.86168371    -0.12730
C1678       C  0.80682712  0.32330670  0.90477122     0.00920
C1679       C  0.83587820  0.32698641  0.92569077    -0.11250
C1680       C  0.86555932  0.32822501  0.90372655     0.03410
C1681       C  0.86553415  0.32689932  0.86053418    -0.10670
H1682       H  0.78580684  0.31657564  0.84563473     0.09010
H1683       H  0.83555085  0.32858511  0.95906485     0.06540
H1684       H  0.88818731  0.32849883  0.84359577     0.06380
C1685       C  0.83806850  0.32122056  0.70637451    -0.05200
C1686       C  0.80565357  0.34369282  0.72764219    -0.32600
C1687       C  0.80466133  0.34416216  0.77073118     0.36650
C1688       C  0.83657098  0.32189773  0.79347955    -0.05530
C1689       C  0.86891366  0.29904698  0.77224244    -0.32500
C1690       C  0.86986162  0.29857669  0.72905248     0.36550
H1691       H  0.78111940  0.36161830  0.71073855     0.16920
O1692       O  0.77307420  0.36813665  0.79031169    -0.60000
H1693       H  0.89353286  0.28144075  0.78923487     0.16940
O1694       O  0.90142817  0.27487743  0.70925812    -0.60100
H1695       H  0.91996381  0.28491073  0.71432257     0.43930
H1696       H  0.75467694  0.02447756  0.78591674     0.43890
C1697       C  0.66993796  0.16015625  0.70665444    -0.05170
C1698       C  0.97225636  0.18529872  0.72799831    -0.32600
C1699       C  0.97154967  0.18535337  0.77111321     0.36650
C1700       C  0.66893756  0.16024441  0.79337291    -0.05530
C1701       C  0.69994046  0.13493866  0.77205909    -0.32500
C1702       C  0.70056665  0.13479041  0.72888670     0.36550
H1703       H  0.94839360  0.20450274  0.71108054     0.16920
O1704       O  0.94066020  0.20980201  0.79131060    -0.60000
H1705       H  0.72379118  0.11559293  0.78896262     0.16940
O1706       O  0.73160880  0.11062828  0.70868247    -0.60100
H1707       H  0.72745909  0.08810460  0.70404863     0.43930
H1708       H  0.92475442  0.19650329  0.79483334     0.43890
O1709       O  0.76352634  0.63279425  0.08291458    -0.75000
O1710       O  0.76086145  0.34835033  0.04423565    -0.53910
C1711       C  0.77530220  0.65702131  0.07245708     0.78730
O1712       O  0.69362980  0.56819458  0.41504594    -0.59600
O1713       O  0.97942685  0.57008614  0.45544293    -0.52630
C1714       C  0.00294005  0.55634966  0.42612869     0.70740
O1715       O  0.76316447  0.63245625  0.41713917    -0.74160
O1716       O  0.76074150  0.34803842  0.45581857    -0.54720
C1717       C  0.77500665  0.65668733  0.42759224     0.76750
O1718       O  0.69408536  0.56839869  0.08522104    -0.59300
O1719       O  0.97961536  0.57029578  0.04483753    -0.52420
C1720       C  0.00332709  0.55655196  0.07413032     0.73340
Zr1721     Zr  0.71481733  0.61461941  0.06175318     2.54710
O1722       O  0.77075647  0.55683347  0.05945497    -0.79870
O1723       O  0.71412203  0.61597925  0.13683972    -0.93290
Zr1724     Zr  0.71480903  0.61416342  0.43870858     2.64680
O1725       O  0.77105805  0.55664021  0.44172021    -0.98240
O1726       O  0.71503937  0.61476642  0.36365190    -0.80300
O1727       O  0.73490769  0.63258661  0.50021406    -0.83660
O1728       O  0.69666631  0.59440061  0.50025933    -2.18370
O1729       O  0.90938964  0.35366179  0.08488792    -0.67050
O1730       O  0.91114538  0.63932802  0.04441844    -0.51610
C1731       C  0.89750810  0.32959301  0.07369847     0.71720
O1732       O  0.97528357  0.42140084  0.41617969    -0.59960
O1733       O  0.69095558  0.41843743  0.45524734    -0.51930
C1734       C  0.66654432  0.43277900  0.42669819     0.73520
O1735       O  0.90907793  0.35324703  0.41481887    -0.71350
O1736       O  0.91099377  0.63905615  0.45542804    -0.50030
C1737       C  0.89721383  0.32924517  0.42608738     0.74910
O1738       O  0.97580142  0.42154128  0.08359244    -0.66680
O1739       O  0.69114952  0.41864608  0.04443220    -0.53880
C1740       C  0.66696861  0.43295004  0.07305387     0.73290
Zr1741     Zr  0.95573293  0.37437983  0.06116863     2.77540
O1742       O  0.89896171  0.43129991  0.05657886    -0.97430
O1743       O  0.95531006  0.37593940  0.13618016    -0.78250
Zr1744     Zr  0.95573851  0.37387497  0.43820283     2.70070
O1745       O  0.89838421  0.43024293  0.44145583    -0.79500
O1746       O  0.95700087  0.37448990  0.36316439    -0.98580
Zr1747     Zr  0.70704871  0.36518890  0.49996324     2.21500
Zr1748     Zr  0.96409690  0.62325191  0.99999098     2.11130
O1749       O  0.93570175  0.35594016  0.99970735    -2.47270
O1750       O  0.97439402  0.39390989  0.99966477    -0.79290
O1751       O  0.98255020  0.64205254  0.06234927    -0.71490
O1752       O  0.68804346  0.34643341  0.43772744    -2.32440
O1753       O  0.68806529  0.34689246  0.06226973    -2.28650
O1754       O  0.98252766  0.64154564  0.43752946    -0.73250
H1755       H  0.70593794  0.56773514  0.50040251     0.78750
H1756       H  0.69671610  0.35486367  0.41388776     0.79840
H1757       H  0.90902248  0.36539312  0.99957566     0.82060
H1758       H  0.69679030  0.35542300  0.08611097     0.79670
H1759       H  0.70423428  0.64134726  0.35614117     0.42710
H1760       H  0.96128771  0.34907081  0.35489494     0.41680
H1761       H  0.90240113  0.44472508  0.46421340     0.41350
H1762       H  0.88082739  0.42395930  0.04299423     0.39290
H1763       H  0.96920446  0.34971014  0.14447375     0.42420
H1764       H  0.71206855  0.64087182  0.14427843     0.37200
H1765       H  0.78353793  0.55868331  0.03404342     0.43320
H1766       H  0.76378010  0.53897470  0.45628981     0.39730
H1767       H  0.89024230  0.43677210  0.08540947     0.44650
H1768       H  0.73959504  0.59878406  0.14510645     0.43380
H1769       H  0.77520041  0.54766614  0.41287678     0.43510
H1770       H  0.93108880  0.39016571  0.35486180     0.43870
C1771       C  0.66980358  0.49377515  0.16119338     0.03420
C1772       C  0.67064109  0.52392725  0.13978818    -0.12730
C1773       C  0.66968670  0.52467624  0.09654966     0.00920
C1774       C  0.66838680  0.49481237  0.07475202    -0.11250
C1775       C  0.66768144  0.46449989  0.09594711     0.03410
C1776       C  0.66808790  0.46423788  0.13918864    -0.10670
H1777       H  0.67162094  0.54692696  0.15679897     0.09010
H1778       H  0.66794756  0.49514610  0.04133205     0.06540
H1779       H  0.66739554  0.44094251  0.15572978     0.06380
C1780       C  0.66883026  0.49379350  0.33882311     0.03420
C1781       C  0.66986244  0.52385714  0.36038035    -0.12730
C1782       C  0.66910109  0.52453896  0.40360559     0.00920
C1783       C  0.66783745  0.49466904  0.42525645    -0.11250
C1784       C  0.66707368  0.46437675  0.40391396     0.03410
C1785       C  0.66734942  0.46414943  0.36066216    -0.10670
H1786       H  0.67083701  0.54685634  0.34348106     0.09010
H1787       H  0.66753649  0.49495014  0.45867639     0.06540
H1788       H  0.66672549  0.44082552  0.34399762     0.06380
C1789       C  0.83813793  0.65564765  0.16066469     0.03420
C1790       C  0.80877968  0.65371077  0.13827637    -0.12730
C1791       C  0.80732109  0.65691857  0.09520825     0.00920
C1792       C  0.83621230  0.66060408  0.07423113    -0.11250
C1793       C  0.86606770  0.66182376  0.09613134     0.03410
C1794       C  0.86652081  0.66020787  0.13930876    -0.10670
H1795       H  0.78660313  0.65047542  0.15446444     0.09010
H1796       H  0.83558263  0.66231385  0.04086463     0.06540
H1797       H  0.88913554  0.66215647  0.15614552     0.06380
C1798       C  0.83668866  0.65626148  0.33920132     0.03420
C1799       C  0.80786543  0.65361912  0.36168373    -0.12730
C1800       C  0.80682715  0.65664006  0.40477124     0.00920
C1801       C  0.83587822  0.66031981  0.42569079    -0.11250
C1802       C  0.86555936  0.66155836  0.40372656     0.03410
C1803       C  0.86553423  0.66023259  0.36053420    -0.10670
H1804       H  0.78580691  0.64990894  0.34563475     0.09010
H1805       H  0.83555084  0.66191855  0.45906486     0.06540
H1806       H  0.88818740  0.66183206  0.34359578     0.06380
C1807       C  0.83806860  0.65455374  0.20637455    -0.05200
C1808       C  0.80565371  0.67702608  0.22764222    -0.32600
C1809       C  0.80466147  0.67749544  0.27073120     0.36650
C1810       C  0.83657109  0.65523094  0.29347958    -0.05530
C1811       C  0.86891374  0.63238008  0.27224248    -0.32500
C1812       C  0.86986170  0.63190978  0.22905251     0.36550
H1813       H  0.78111956  0.69495163  0.21073857     0.16920
O1814       O  0.77307437  0.70147001  0.29031171    -0.60000
H1815       H  0.89353291  0.61477376  0.28923491     0.16940
O1816       O  0.90142820  0.60821043  0.20925816    -0.60100
H1817       H  0.91996390  0.61824367  0.21432255     0.43930
H1818       H  0.75467689  0.35781093  0.28591678     0.43890
C1819       C  0.66993782  0.49348973  0.20665444    -0.05170
C1820       C  0.97225550  0.51863120  0.22799828    -0.32600
C1821       C  0.97154883  0.51868584  0.27111319     0.36650
C1822       C  0.66893741  0.49357789  0.29337289    -0.05530
C1823       C  0.69994085  0.46827303  0.27205910    -0.32500
C1824       C  0.70056705  0.46812479  0.22888671     0.36550
H1825       H  0.94839227  0.53783441  0.21108049     0.16920
O1826       O  0.94065881  0.54313350  0.29131058    -0.60000
H1827       H  0.72379196  0.44892797  0.28896265     0.16940
O1828       O  0.73160968  0.44396356  0.20868250    -0.60100
H1829       H  0.72746077  0.42143951  0.20404806     0.43930
H1830       H  0.92475398  0.52983375  0.29483327     0.43890
O1831       O  0.76352635  0.63279425  0.58291456    -0.75000
O1832       O  0.76086146  0.34835034  0.54423564    -0.53910
C1833       C  0.77530221  0.65702132  0.57245706     0.78730
O1834       O  0.69362979  0.56819456  0.91504595    -0.59600
O1835       O  0.97942684  0.57008613  0.95544294    -0.52630
C1836       C  0.00294006  0.55634963  0.92612871     0.70740
O1837       O  0.76316447  0.63245622  0.91713917    -0.74160
O1838       O  0.76074150  0.34803839  0.95581858    -0.54720
C1839       C  0.77500665  0.65668731  0.92759224     0.76750
O1840       O  0.69408536  0.56839870  0.58522105    -0.59300
O1841       O  0.97961536  0.57029579  0.54483754    -0.52420
C1842       C  0.00332709  0.55655196  0.57413033     0.73340
Zr1843     Zr  0.71481734  0.61461942  0.56175317     2.54710
O1844       O  0.77075648  0.55683348  0.55945495    -0.79870
O1845       O  0.71412205  0.61597924  0.63683972    -0.93290
Zr1846     Zr  0.71480903  0.61416340  0.93870858     2.64680
O1847       O  0.77105803  0.55664018  0.94172023    -0.98240
O1848       O  0.71503937  0.61476638  0.86365190    -0.80300
O1849       O  0.73490769  0.63258660  0.00021406    -0.83660
O1850       O  0.69666631  0.59440060  0.00025933    -2.18370
O1851       O  0.90938966  0.35366178  0.58488791    -0.67050
O1852       O  0.91114538  0.63932804  0.54441843    -0.51610
C1853       C  0.89750811  0.32959301  0.57369845     0.71720
O1854       O  0.97528358  0.42140082  0.91617973    -0.59960
O1855       O  0.69095558  0.41843741  0.95524735    -0.51930
C1856       C  0.66654432  0.43277898  0.92669819     0.73520
O1857       O  0.90907794  0.35324701  0.91481887    -0.71350
O1858       O  0.91099376  0.63905614  0.95542804    -0.50030
C1859       C  0.89721383  0.32924515  0.92608739     0.74910
O1860       O  0.97580143  0.42154129  0.58359239    -0.66680
O1861       O  0.69114952  0.41864609  0.54443219    -0.53880
C1862       C  0.66696861  0.43295005  0.57305386     0.73290
Zr1863     Zr  0.95573295  0.37437982  0.56116862     2.77540
O1864       O  0.89896172  0.43129989  0.55657891    -0.97430
O1865       O  0.95531015  0.37593935  0.63618014    -0.78250
Zr1866     Zr  0.95573850  0.37387495  0.93820285     2.70070
O1867       O  0.89838420  0.43024290  0.94145579    -0.79500
O1868       O  0.95700090  0.37448986  0.86316440    -0.98580
Zr1869     Zr  0.70704871  0.36518888  0.99996324     2.21500
Zr1870     Zr  0.96409691  0.62325192  0.49999098     2.11130
O1871       O  0.93570176  0.35594017  0.49970734    -2.47270
O1872       O  0.97439403  0.39390990  0.49966476    -0.79290
O1873       O  0.98255022  0.64205254  0.56234927    -0.71490
O1874       O  0.68804345  0.34643339  0.93772745    -2.32440
O1875       O  0.68806530  0.34689247  0.56226973    -2.28650
O1876       O  0.98252766  0.64154562  0.93752946    -0.73250
H1877       H  0.70593793  0.56773513  0.00040252     0.78750
H1878       H  0.69671610  0.35486364  0.91388776     0.79840
H1879       H  0.90902249  0.36539313  0.49957565     0.82060
H1880       H  0.69679031  0.35542301  0.58611096     0.79670
H1881       H  0.70423425  0.64134722  0.85614116     0.42710
H1882       H  0.96128776  0.34907077  0.85489495     0.41680
H1883       H  0.90240109  0.44472506  0.96421336     0.41350
H1884       H  0.88082740  0.42395929  0.54299428     0.39290
H1885       H  0.96920453  0.34971009  0.64447372     0.42420
H1886       H  0.71206857  0.64087181  0.64427843     0.37200
H1887       H  0.78353794  0.55868333  0.53404341     0.43320
H1888       H  0.76378008  0.53897467  0.95628982     0.39730
H1889       H  0.89024231  0.43677205  0.58540953     0.44650
H1890       H  0.73959507  0.59878406  0.64510644     0.43380
H1891       H  0.77520040  0.54766611  0.91287680     0.43510
H1892       H  0.93108883  0.39016567  0.85486180     0.43870
C1893       C  0.66980359  0.49377515  0.66119338     0.03420
C1894       C  0.67064109  0.52392725  0.63978818    -0.12730
C1895       C  0.66968670  0.52467625  0.59654966     0.00920
C1896       C  0.66838679  0.49481238  0.57475201    -0.11250
C1897       C  0.66768143  0.46449991  0.59594710     0.03410
C1898       C  0.66808790  0.46423789  0.63918863    -0.10670
H1899       H  0.67162095  0.54692696  0.65679898     0.09010
H1900       H  0.66794756  0.49514612  0.54133205     0.06540
H1901       H  0.66739552  0.44094252  0.65572976     0.06380
C1902       C  0.66883026  0.49379348  0.83882311     0.03420
C1903       C  0.66986242  0.52385712  0.86038036    -0.12730
C1904       C  0.66910107  0.52453895  0.90360560     0.00920
C1905       C  0.66783743  0.49466902  0.92525646    -0.11250
C1906       C  0.66707368  0.46437673  0.90391397     0.03410
C1907       C  0.66734943  0.46414941  0.86066217    -0.10670
H1908       H  0.67083700  0.54685632  0.84348107     0.09010
H1909       H  0.66753647  0.49495013  0.95867640     0.06540
H1910       H  0.66672550  0.44082549  0.84399763     0.06380
C1911       C  0.83813787  0.65564777  0.66066469     0.03420
C1912       C  0.80877965  0.65371084  0.63827636    -0.12730
C1913       C  0.80732109  0.65691859  0.59520824     0.00920
C1914       C  0.83621231  0.66060407  0.57423111    -0.11250
C1915       C  0.86606769  0.66182379  0.59613132     0.03410
C1916       C  0.86652076  0.66020798  0.63930874    -0.10670
H1917       H  0.78660310  0.65047550  0.65446443     0.09010
H1918       H  0.83558266  0.66231379  0.54086461     0.06540
H1919       H  0.88913547  0.66215662  0.65614550     0.06380
C1920       C  0.83668860  0.65626157  0.83920131     0.03420
C1921       C  0.80786540  0.65361915  0.86168373    -0.12730
C1922       C  0.80682714  0.65664004  0.90477124     0.00920
C1923       C  0.83587822  0.66031976  0.92569079    -0.11250
C1924       C  0.86555934  0.66155835  0.90372657     0.03410
C1925       C  0.86553418  0.66023266  0.86053420    -0.10670
H1926       H  0.78580687  0.64990899  0.84563474     0.09010
H1927       H  0.83555086  0.66191846  0.95906487     0.06540
H1928       H  0.88818734  0.66183216  0.84359579     0.06380
C1929       C  0.83806854  0.65455388  0.70637454    -0.05200
C1930       C  0.80565362  0.67702616  0.72764221    -0.32600
C1931       C  0.80466138  0.67749551  0.77073120     0.36650
C1932       C  0.83657102  0.65523106  0.79347957    -0.05530
C1933       C  0.86891369  0.63238028  0.77224247    -0.32500
C1934       C  0.86986165  0.63190998  0.72905251     0.36550
H1935       H  0.78111945  0.69495166  0.71073857     0.16920
O1936       O  0.77307425  0.70147002  0.79031171    -0.60000
H1937       H  0.89353288  0.61477403  0.78923490     0.16940
O1938       O  0.90142819  0.60821070  0.70925815    -0.60100
H1939       H  0.91996384  0.61824399  0.71432259     0.43930
H1940       H  0.75467683  0.35781085  0.78591675     0.43890
C1941       C  0.66993783  0.49348972  0.70665445    -0.05170
C1942       C  0.97225612  0.51863185  0.72799830    -0.32600
C1943       C  0.97154943  0.51868650  0.77111321     0.36650
C1944       C  0.66893741  0.49357787  0.79337290    -0.05530
C1945       C  0.69994073  0.46827282  0.77205910    -0.32500
C1946       C  0.70056693  0.46812458  0.72888671     0.36550
H1947       H  0.94839324  0.53783567  0.71108052     0.16920
O1948       O  0.94065983  0.54313490  0.79131059    -0.60000
H1949       H  0.72379175  0.44892761  0.78896265     0.16940
O1950       O  0.73160946  0.44396315  0.70868250    -0.60100
H1951       H  0.72746037  0.42143918  0.70404819     0.43930
H1952       H  0.92475428  0.52983593  0.79483331     0.43890
O1953       O  0.76352634  0.96612756  0.08291458    -0.75000
O1954       O  0.76086148  0.68168366  0.04423568    -0.53910
C1955       C  0.77530221  0.99035463  0.07245707     0.78730
O1956       O  0.69362981  0.90152789  0.41504594    -0.59600
O1957       O  0.97942685  0.90341947  0.45544292    -0.52630
C1958       C  0.00294005  0.88968298  0.42612868     0.70740
O1959       O  0.76316447  0.96578957  0.41713914    -0.74160
O1960       O  0.76074153  0.68137175  0.45581860    -0.54720
C1961       C  0.77500665  0.99002065  0.42759222     0.76750
O1962       O  0.69408535  0.90173202  0.08522105    -0.59300
O1963       O  0.97961536  0.90362911  0.04483753    -0.52420
C1964       C  0.00332708  0.88988529  0.07413032     0.73340
Zr1965     Zr  0.71481733  0.94795274  0.06175317     2.54710
O1966       O  0.77075647  0.89016679  0.05945497    -0.79870
O1967       O  0.71412203  0.94931257  0.13683972    -0.93290
Zr1968     Zr  0.71480904  0.94749674  0.43870857     2.64680
O1969       O  0.77105805  0.88997353  0.44172017    -0.98240
O1970       O  0.71503935  0.94809974  0.36365188    -0.80300
O1971       O  0.73490770  0.96591991  0.50021405    -0.83660
O1972       O  0.69666632  0.92773393  0.50025932    -2.18370
O1973       O  0.90938969  0.68699510  0.08488794    -0.67050
O1974       O  0.91114537  0.97266135  0.04441842    -0.51610
C1975       C  0.89750814  0.66292632  0.07369849     0.71720
O1976       O  0.97528360  0.75473416  0.41617971    -0.59960
O1977       O  0.69095562  0.75177075  0.45524737    -0.51930
C1978       C  0.66654436  0.76611232  0.42669821     0.73520
O1979       O  0.90907796  0.68658037  0.41481890    -0.71350
O1980       O  0.91099376  0.97238948  0.45542803    -0.50030
C1981       C  0.89721386  0.66257851  0.42608740     0.74910
O1982       O  0.97580144  0.75487461  0.08359244    -0.66680
O1983       O  0.69114954  0.75197941  0.04443220    -0.53880
C1984       C  0.66696862  0.76628337  0.07305387     0.73290
Zr1985     Zr  0.95573296  0.70771315  0.06116864     2.77540
O1986       O  0.89896173  0.76463323  0.05657889    -0.97430
O1987       O  0.95531011  0.70927272  0.13618017    -0.78250
Zr1988     Zr  0.95573853  0.70720831  0.43820287     2.70070
O1989       O  0.89838424  0.76357626  0.44145585    -0.79500
O1990       O  0.95700091  0.70782322  0.36316442    -0.98580
Zr1991     Zr  0.70704874  0.69852223  0.49996327     2.21500
Zr1992     Zr  0.96409691  0.95658524  0.99999097     2.11130
O1993       O  0.93570177  0.68927349  0.99970736    -2.47270
O1994       O  0.97439405  0.72724322  0.99966478    -0.79290
O1995       O  0.98255021  0.97538586  0.06234927    -0.71490
O1996       O  0.68804349  0.67976674  0.43772747    -2.32440
O1997       O  0.68806533  0.68022578  0.06226975    -2.28650
O1998       O  0.98252767  0.97487896  0.43752944    -0.73250
H1999       H  0.70593794  0.90106846  0.50040250     0.78750
H2000       H  0.69671614  0.68819699  0.41388778     0.79840
H2001       H  0.90902250  0.69872645  0.99957567     0.82060
H2002       H  0.69679033  0.68875633  0.08611098     0.79670
H2003       H  0.70423426  0.97468058  0.35614116     0.42710
H2004       H  0.96128775  0.68240413  0.35489498     0.41680
H2005       H  0.90240115  0.77805842  0.46421341     0.41350
H2006       H  0.88082741  0.75729262  0.04299427     0.39290
H2007       H  0.96920450  0.68304346  0.14447376     0.42420
H2008       H  0.71206854  0.97420514  0.14427842     0.37200
H2009       H  0.78353793  0.89201663  0.03404343     0.43320
H2010       H  0.76378012  0.87230802  0.45628980     0.39730
H2011       H  0.89024232  0.77010541  0.08540950     0.44650
H2012       H  0.73959504  0.93211739  0.14510645     0.43380
H2013       H  0.77520039  0.88099945  0.41287675     0.43510
H2014       H  0.93108884  0.72349903  0.35486182     0.43870
C2015       C  0.66980359  0.82710847  0.16119339     0.03420
C2016       C  0.67064109  0.85726058  0.13978819    -0.12730
C2017       C  0.66968669  0.85800957  0.09654967     0.00920
C2018       C  0.66838679  0.82814570  0.07475202    -0.11250
C2019       C  0.66768145  0.79783323  0.09594711     0.03410
C2020       C  0.66808791  0.79757121  0.13918864    -0.10670
H2021       H  0.67162094  0.88026029  0.15679898     0.09010
H2022       H  0.66794755  0.82847943  0.04133205     0.06540
H2023       H  0.66739555  0.77427583  0.15572977     0.06380
C2024       C  0.66883029  0.82712680  0.33882311     0.03420
C2025       C  0.66986245  0.85719044  0.36038035    -0.12730
C2026       C  0.66910110  0.85787227  0.40360559     0.00920
C2027       C  0.66783747  0.82800235  0.42525646    -0.11250
C2028       C  0.66707372  0.79771006  0.40391397     0.03410
C2029       C  0.66734947  0.79748273  0.36066218    -0.10670
H2030       H  0.67083702  0.88018965  0.34348106     0.09010
H2031       H  0.66753651  0.82828346  0.45867640     0.06540
H2032       H  0.66672554  0.77415881  0.34399765     0.06380
C2033       C  0.83813792  0.98898099  0.16066468     0.03420
C2034       C  0.80877969  0.98704410  0.13827637    -0.12730
C2035       C  0.80732110  0.99025189  0.09520824     0.00920
C2036       C  0.83621230  0.99393739  0.07423112    -0.11250
C2037       C  0.86606770  0.99515709  0.09613132     0.03410
C2038       C  0.86652080  0.99354122  0.13930874    -0.10670
H2039       H  0.78660313  0.98380875  0.15446444     0.09010
H2040       H  0.83558263  0.99564715  0.04086462     0.06540
H2041       H  0.88913553  0.99548983  0.15614550     0.06380
C2042       C  0.83668865  0.98959483  0.33920130     0.03420
C2043       C  0.80786542  0.98695245  0.36168371    -0.12730
C2044       C  0.80682715  0.98997339  0.40477122     0.00920
C2045       C  0.83587822  0.99365312  0.42569077    -0.11250
C2046       C  0.86555936  0.99489169  0.40372655     0.03410
C2047       C  0.86553422  0.99356594  0.36053419    -0.10670
H2048       H  0.78580690  0.98324228  0.34563473     0.09010
H2049       H  0.83555085  0.99525185  0.45906485     0.06540
H2050       H  0.88818739  0.99516542  0.34359577     0.06380
C2051       C  0.83806860  0.98788709  0.20637453    -0.05200
C2052       C  0.80565371  0.01035942  0.22764220    -0.32600
C2053       C  0.80466146  0.01082878  0.27073118     0.36650
C2054       C  0.83657108  0.98856429  0.29347956    -0.05530
C2055       C  0.86891374  0.96571345  0.27224247    -0.32500
C2056       C  0.86986170  0.96524315  0.22905250     0.36550
H2057       H  0.78111956  0.02828495  0.21073855     0.16920
O2058       O  0.77307435  0.03480333  0.29031169    -0.60000
H2059       H  0.89353291  0.94810715  0.28923490     0.16940
O2060       O  0.90142822  0.94154382  0.20925815    -0.60100
H2061       H  0.91996390  0.95157708  0.21432255     0.43930
H2062       H  0.75467695  0.69114426  0.28591680     0.43890
C2063       C  0.66993784  0.82682304  0.20665445    -0.05170
C2064       C  0.97225563  0.85196466  0.22799829    -0.32600
C2065       C  0.97154895  0.85201930  0.27111320     0.36650
C2066       C  0.66893743  0.82691118  0.29337290    -0.05530
C2067       C  0.69994076  0.80160616  0.27205910    -0.32500
C2068       C  0.70056696  0.80145792  0.22888671     0.36550
H2069       H  0.94839247  0.87116799  0.21108050     0.16920
O2070       O  0.94065902  0.87646711  0.29131059    -0.60000
H2071       H  0.72379180  0.78226097  0.28896265     0.16940
O2072       O  0.73160950  0.77729653  0.20868249    -0.60100
H2073       H  0.72746045  0.75477253  0.20404820     0.43930
H2074       H  0.92475404  0.86316751  0.29483327     0.43890
O2075       O  0.76352635  0.96612757  0.58291457    -0.75000
O2076       O  0.76086149  0.68168367  0.54423567    -0.53910
C2077       C  0.77530221  0.99035464  0.57245706     0.78730
O2078       O  0.69362980  0.90152788  0.91504595    -0.59600
O2079       O  0.97942684  0.90341946  0.95544293    -0.52630
C2080       C  0.00294006  0.88968297  0.92612870     0.70740
O2081       O  0.76316447  0.96578955  0.91713915    -0.74160
O2082       O  0.76074153  0.68137173  0.95581860    -0.54720
C2083       C  0.77500665  0.99002063  0.92759222     0.76750
O2084       O  0.69408536  0.90173203  0.58522105    -0.59300
O2085       O  0.97961536  0.90362913  0.54483753    -0.52420
C2086       C  0.00332708  0.88988531  0.57413032     0.73340
Zr2087     Zr  0.71481734  0.94795274  0.56175317     2.54710
O2088       O  0.77075647  0.89016679  0.55945495    -0.79870
O2089       O  0.71412205  0.94931257  0.63683971    -0.93290
Zr2090     Zr  0.71480903  0.94749673  0.93870857     2.64680
O2091       O  0.77105804  0.88997351  0.94172018    -0.98240
O2092       O  0.71503934  0.94809973  0.86365189    -0.80300
O2093       O  0.73490770  0.96591990  0.00021405    -0.83660
O2094       O  0.69666630  0.92773392  0.00025933    -2.18370
O2095       O  0.90938969  0.68699511  0.58488794    -0.67050
O2096       O  0.91114538  0.97266136  0.54441842    -0.51610
C2097       C  0.89750814  0.66292634  0.57369848     0.71720
O2098       O  0.97528360  0.75473415  0.91617971    -0.59960
O2099       O  0.69095561  0.75177073  0.95524735    -0.51930
C2100       C  0.66654435  0.76611230  0.92669819     0.73520
O2101       O  0.90907795  0.68658035  0.91481889    -0.71350
O2102       O  0.91099376  0.97238947  0.95542803    -0.50030
C2103       C  0.89721385  0.66257849  0.92608740     0.74910
O2104       O  0.97580145  0.75487462  0.58359245    -0.66680
O2105       O  0.69114954  0.75197942  0.54443222    -0.53880
C2106       C  0.66696863  0.76628338  0.57305389     0.73290
Zr2107     Zr  0.95573298  0.70771315  0.56116865     2.77540
O2108       O  0.89896175  0.76463322  0.55657893    -0.97430
O2109       O  0.95531015  0.70927269  0.63618018    -0.78250
Zr2110     Zr  0.95573853  0.70720829  0.93820286     2.70070
O2111       O  0.89838423  0.76357624  0.94145583    -0.79500
O2112       O  0.95700091  0.70782320  0.86316441    -0.98580
Zr2113     Zr  0.70704874  0.69852221  0.99996326     2.21500
Zr2114     Zr  0.96409691  0.95658525  0.49999096     2.11130
O2115       O  0.93570178  0.68927350  0.49970737    -2.47270
O2116       O  0.97439405  0.72724323  0.49966480    -0.79290
O2117       O  0.98255022  0.97538586  0.56234925    -0.71490
O2118       O  0.68804349  0.67976672  0.93772746    -2.32440
O2119       O  0.68806533  0.68022579  0.56226976    -2.28650
O2120       O  0.98252766  0.97487895  0.93752945    -0.73250
H2121       H  0.70593793  0.90106845  0.00040251     0.78750
H2122       H  0.69671614  0.68819697  0.91388778     0.79840
H2123       H  0.90902251  0.69872646  0.49957568     0.82060
H2124       H  0.69679034  0.68875633  0.58611099     0.79670
H2125       H  0.70423427  0.97468056  0.85614116     0.42710
H2126       H  0.96128775  0.68240411  0.85489497     0.41680
H2127       H  0.90240113  0.77805840  0.96421340     0.41350
H2128       H  0.88082743  0.75729262  0.54299428     0.39290
H2129       H  0.96920453  0.68304343  0.64447376     0.42420
H2130       H  0.71206856  0.97420514  0.64427842     0.37200
H2131       H  0.78353794  0.89201664  0.53404342     0.43320
H2132       H  0.76378010  0.87230801  0.95628981     0.39730
H2133       H  0.89024233  0.77010539  0.58540954     0.44650
H2134       H  0.73959506  0.93211739  0.64510643     0.43380
H2135       H  0.77520037  0.88099943  0.91287676     0.43510
H2136       H  0.93108884  0.72349902  0.85486182     0.43870
C2137       C  0.66980358  0.82710850  0.66119339     0.03420
C2138       C  0.67064108  0.85726060  0.63978819    -0.12730
C2139       C  0.66968669  0.85800958  0.59654967     0.00920
C2140       C  0.66838680  0.82814571  0.57475203    -0.11250
C2141       C  0.66768144  0.79783324  0.59594712     0.03410
C2142       C  0.66808790  0.79757123  0.63918866    -0.10670
H2143       H  0.67162094  0.88026031  0.65679898     0.09010
H2144       H  0.66794756  0.82847944  0.54133206     0.06540
H2145       H  0.66739554  0.77427586  0.65572980     0.06380
C2146       C  0.66883026  0.82712681  0.83882311     0.03420
C2147       C  0.66986243  0.85719045  0.86038036    -0.12730
C2148       C  0.66910108  0.85787227  0.90360560     0.00920
C2149       C  0.66783746  0.82800234  0.92525646    -0.11250
C2150       C  0.66707371  0.79771005  0.90391397     0.03410
C2151       C  0.66734945  0.79748273  0.86066217    -0.10670
H2152       H  0.67083699  0.88018966  0.84348107     0.09010
H2153       H  0.66753650  0.82828344  0.95867640     0.06540
H2154       H  0.66672552  0.77415882  0.84399763     0.06380
C2155       C  0.83813793  0.98898100  0.66066468     0.03420
C2156       C  0.80877969  0.98704410  0.63827636    -0.12730
C2157       C  0.80732110  0.99025190  0.59520824     0.00920
C2158       C  0.83621231  0.99393741  0.57423111    -0.11250
C2159       C  0.86606771  0.99515710  0.59613131     0.03410
C2160       C  0.86652081  0.99354122  0.63930874    -0.10670
H2161       H  0.78660314  0.98380875  0.65446443     0.09010
H2162       H  0.83558264  0.99564717  0.54086461     0.06540
H2163       H  0.88913554  0.99548982  0.65614550     0.06380
C2164       C  0.83668865  0.98959480  0.83920130     0.03420
C2165       C  0.80786543  0.98695243  0.86168371    -0.12730
C2166       C  0.80682715  0.98997336  0.90477122     0.00920
C2167       C  0.83587822  0.99365310  0.92569077    -0.11250
C2168       C  0.86555936  0.99489166  0.90372655     0.03410
C2169       C  0.86553422  0.99356591  0.86053419    -0.10670
H2170       H  0.78580691  0.98324225  0.84563472     0.09010
H2171       H  0.83555085  0.99525183  0.95906485     0.06540
H2172       H  0.88818739  0.99516539  0.84359577     0.06380
C2173       C  0.83806861  0.98788708  0.70637453    -0.05200
C2174       C  0.80565371  0.01035941  0.72764220    -0.32600
C2175       C  0.80466147  0.01082876  0.77073118     0.36650
C2176       C  0.83657108  0.98856427  0.79347956    -0.05530
C2177       C  0.86891374  0.96571343  0.77224246    -0.32500
C2178       C  0.86986171  0.96524314  0.72905249     0.36550
H2179       H  0.78111956  0.02828494  0.71073855     0.16920
O2180       O  0.77307436  0.03480330  0.79031169    -0.60000
H2181       H  0.89353292  0.94810713  0.78923489     0.16940
O2182       O  0.90142822  0.94154381  0.70925814    -0.60100
H2183       H  0.91996390  0.95157706  0.71432254     0.43930
H2184       H  0.75467687  0.69114422  0.78591678     0.43890
C2185       C  0.66993782  0.82682308  0.70665446    -0.05170
C2186       C  0.97225561  0.85196466  0.72799830    -0.32600
C2187       C  0.97154893  0.85201929  0.77111321     0.36650
C2188       C  0.66893741  0.82691121  0.79337290    -0.05530
C2189       C  0.69994083  0.80160633  0.77205910    -0.32500
C2190       C  0.70056703  0.80145810  0.72888672     0.36550
H2191       H  0.94839244  0.87116799  0.71108052     0.16920
O2192       O  0.94065899  0.87646708  0.79131060    -0.60000
H2193       H  0.72379193  0.78226124  0.78896265     0.16940
O2194       O  0.73160965  0.77729684  0.70868250    -0.60100
H2195       H  0.72746071  0.75477280  0.70404809     0.43930
H2196       H  0.92475403  0.86316747  0.79483328     0.43890
loop_ 
_geom_bond_atom_site_label_1 
_geom_bond_atom_site_label_2 
_geom_bond_distance 
_geom_bond_site_symmetry_2 
_ccdc_geom_bond_type 
O1          Zr13   2.440       .  S
O1            C3   1.287       .  A
O2         Zr161   2.424   1_554  S
O2          C491   1.286   1_545  A
C3          O246   1.286       .  A
C3           C83   1.471       .  S
O4          Zr16   2.443       .  S
O4         C1470   1.288       .  A
O5         Zr162   2.419       .  S
O5            C6   1.285       .  A
C6          O736   1.288       .  A
C6          C806   1.470       .  S
O7          Zr16   2.439       .  S
O7            C9   1.287       .  A
O8          Zr39   2.424       .  S
O8          C497   1.287   1_545  A
C9          O252   1.287       .  A
C9           C92   1.471       .  S
O10         Zr13   2.443       .  S
O10        C1476   1.288       .  A
O11         Zr40   2.419   1_554  S
O11          C12   1.285       .  A
C12         O742   1.288       .  A
C12         C797   1.470       .  S
Zr13         O14   2.433       .  S
Zr13         O15   2.436       .  S
Zr13        O141   2.376       .  S
Zr13        O142   2.373       .  S
Zr13       O1507   2.368   1_455  S
Zr13        O289   2.368       .  S
O14          H57   0.990       .  S
O15          H56   0.990       .  S
O15          H60   0.990       .  S
Zr16         O17   2.434       .  S
Zr16         O18   2.435       .  S
Zr16         O20   2.374       .  S
Zr16         O19   2.376       .  S
Zr16        O288   2.368       .  S
Zr16       O1510   2.369   1_455  S
O17          H58   0.990       .  S
O17          H61   0.990       .  S
O18          H51   0.990       .  S
O19        Zr135   2.376       .  S
O19        Zr283   2.380       .  S
O20        Zr135   2.373       .  S
O20       Zr1626   2.379   1_455  S
O20          H47   0.966       .  S
O21         Zr33   2.450       .  S
O21          C23   1.289   1_545  A
O22         Zr40   2.412   1_554  S
O22         C267   1.284       .  A
C23         O510   1.284       .  A
C23         C573   1.469       .  S
O24         Zr36   2.445       .  S
O24         C758   1.288       .  A
O25         Zr39   2.423       .  S
O25          C26   1.286   1_455  A
C26        O1488   1.288       .  A
C26          C76   1.470   1_655  S
O27         Zr36   2.450       .  S
O27          C29   1.289   1_545  A
O28        Zr162   2.412       .  S
O28         C273   1.284       .  A
C29         O516   1.284       .  A
C29         C582   1.469       .  S
O30         Zr33   2.445       .  S
O30         C764   1.288       .  A
O31        Zr161   2.423   1_554  S
O31          C32   1.286       .  A
C32        O1494   1.288   1_455  A
C32          C67   1.470       .  S
Zr33         O34   2.435       .  S
Zr33         O35   2.434       .  S
Zr33         O41   2.374   1_554  S
Zr33         O42   2.377   1_554  S
Zr33        O777   2.370       .  S
Zr33        O531   2.371   1_545  S
O34          H54   0.990       .  S
O34          H59   0.990       .  S
O35          H55   0.990       .  S
Zr36         O37   2.434       .  S
Zr36         O38   2.435       .  S
Zr36        O164   2.378       .  S
Zr36        O163   2.374       .  S
Zr36        O534   2.370   1_545  S
Zr36        O776   2.369       .  S
O37          H53   0.990       .  S
O38          H52   0.990       .  S
O38          H62   0.990       .  S
Zr39        O124   2.424       .  S
Zr39        O153   2.423       .  S
Zr39         O44   2.382       .  S
Zr39        O507   2.380   1_545  S
Zr39       O1628   2.382   1_455  S
Zr39        O167   2.383       .  S
Zr40        O127   2.419       .  S
Zr40        O150   2.412       .  S
Zr40         O43   2.377   1_556  S
Zr40        O874   2.379   1_556  S
Zr40        O285   2.383       .  S
Zr40        O168   2.377       .  S
O41        Zr158   2.374       .  S
O41        Zr528   2.383   1_545  S
O41          H49   0.966       .  S
O42        Zr158   2.378       .  S
O42        Zr893   2.382       .  S
O43        Zr745   2.368       .  S
O43        Zr277   2.371       .  S
O44        Zr504   2.368   1_545  S
O44       Zr1500   2.369   1_455  S
O44          H48   0.966       .  S
O45        Zr501   2.368   1_545  S
O45       Zr1497   2.370   1_455  S
O45        Zr161   2.383   1_554  S
O45          H50   0.966       .  S
O46        Zr748   2.369       .  S
O46        Zr280   2.370       .  S
O46        Zr162   2.377       .  S
C63         C111   1.475       .  S
C63          C64   1.402       .  A
C63          C68   1.402       .  A
C64          C65   1.403       .  A
C64          H69   1.084       .  S
C65        C1476   1.470       .  S
C65          C66   1.404       .  A
C66          C67   1.402       .  A
C66          H70   1.084       .  S
C67          C68   1.403       .  A
C68          H71   1.084       .  S
C72         C114   1.474       .  S
C72          C73   1.402       .  A
C72          C77   1.402       .  A
C73          C74   1.403       .  A
C73          H78   1.084       .  S
C74        C1470   1.470       .  S
C74          C75   1.403       .  A
C75          C76   1.403       .  A
C75          H79   1.084       .  S
C76          C77   1.403       .  A
C77          H80   1.084       .  S
C81          C99   1.484       .  S
C81          C82   1.405       .  A
C81          C86   1.406       .  A
C82          C83   1.402       .  A
C82          H87   1.084       .  S
C83          C84   1.401       .  A
C84          C85   1.403       .  A
C84          H88   1.084       .  S
C85         C267   1.469       .  S
C85          C86   1.402       .  A
C86          H89   1.083       .  S
C90         C102   1.484       .  S
C90          C91   1.405       .  A
C90          C95   1.406       .  A
C91          C92   1.402       .  A
C91          H96   1.083       .  S
C92          C93   1.401       .  A
C93          C94   1.403       .  A
C93          H97   1.084       .  S
C94         C273   1.469       .  S
C94          C95   1.402       .  A
C95          H98   1.084       .  S
C99         C100   1.403       .  A
C99         C104   1.409       .  A
C100        C101   1.398       .  A
C100        H105   1.082       .  S
C101        C102   1.410       .  A
C101        O106   1.373       .  S
C102        C103   1.405       .  A
C103        C104   1.402       .  A
C103        H107   1.083       .  S
C104        O108   1.372       .  S
O106        H354   0.992       .  S
O108        H109   0.992       .  S
H110        O594   0.992       .  S
C111        C116   1.407       .  A
C111       C1576   1.401   1_455  A
C112        C113   1.399       .  A
C112        C843   1.401       .  A
C112        H117   1.082       .  S
C113        C846   1.406       .  A
C113        O118   1.371       .  S
C114        C115   1.403       .  A
C114       C1577   1.406   1_455  A
C115        C116   1.401       .  A
C115        H119   1.084       .  S
C116        O120   1.371       .  S
O118        H122   0.992       .  S
O120        H121   0.991       .  S
O123       Zr135   2.440       .  S
O123        C125   1.287       .  A
O124        C613   1.286   1_545  A
C125        O368   1.286       .  A
C125        C205   1.471       .  S
O126       Zr138   2.443       .  S
O126       C1592   1.288       .  A
O127        C128   1.285       .  A
C128        O858   1.288       .  A
C128        C928   1.470       .  S
O129       Zr138   2.439       .  S
O129        C131   1.287       .  A
O130       Zr161   2.424       .  S
O130        C619   1.287   1_545  A
C131        O374   1.287       .  A
C131        C214   1.471       .  S
O132       Zr135   2.443       .  S
O132       C1598   1.288       .  A
O133       Zr162   2.419       .  S
O133        C134   1.285       .  A
C134        O864   1.288       .  A
C134        C919   1.470       .  S
Zr135       O136   2.433       .  S
Zr135       O137   2.436       .  S
Zr135      O1629   2.368   1_455  S
Zr135       O411   2.368       .  S
O136        H179   0.990       .  S
O137        H178   0.990       .  S
O137        H182   0.990       .  S
Zr138       O139   2.434       .  S
Zr138       O140   2.435       .  S
Zr138       O142   2.374   1_556  S
Zr138       O141   2.376   1_556  S
Zr138       O410   2.368       .  S
Zr138      O1632   2.369   1_455  S
O139        H180   0.990       .  S
O139        H183   0.990       .  S
O140        H173   0.990       .  S
O141       Zr405   2.380   1_554  S
O142      Zr1504   2.379   1_454  S
O142        H169   0.966       .  S
O143       Zr155   2.450       .  S
O143        C145   1.289   1_545  A
O144       Zr162   2.412       .  S
O144        C389   1.284       .  A
C145        O632   1.284       .  A
C145        C695   1.469       .  S
O146       Zr158   2.445       .  S
O146        C880   1.288       .  A
O147       Zr161   2.423       .  S
O147        C148   1.286   1_455  A
C148       O1610   1.288       .  A
C148        C198   1.470   1_655  S
O149       Zr158   2.450       .  S
O149        C151   1.289   1_545  A
O150        C395   1.284       .  A
C151        O638   1.284       .  A
C151        C704   1.469       .  S
O152       Zr155   2.445       .  S
O152        C886   1.288       .  A
O153        C154   1.286       .  A
C154       O1616   1.288   1_455  A
C154        C189   1.470       .  S
Zr155       O156   2.435       .  S
Zr155       O157   2.434       .  S
Zr155       O163   2.374       .  S
Zr155       O164   2.377       .  S
Zr155       O899   2.370       .  S
Zr155       O653   2.371   1_545  S
O156        H176   0.990       .  S
O156        H181   0.990       .  S
O157        H177   0.990       .  S
Zr158       O159   2.434       .  S
Zr158       O160   2.435       .  S
Zr158       O656   2.370   1_545  S
Zr158       O898   2.369       .  S
O159        H175   0.990       .  S
O160        H174   0.990       .  S
O160        H184   0.990       .  S
Zr161       O629   2.380   1_546  S
Zr161      O1506   2.382   1_455  S
Zr161       O166   2.382       .  S
Zr162       O752   2.379       .  S
Zr162       O407   2.383       .  S
Zr162       O165   2.377       .  S
O163       Zr650   2.383   1_545  S
O163        H171   0.966       .  S
O164       Zr771   2.382       .  S
O165       Zr867   2.368       .  S
O165       Zr399   2.371       .  S
O166       Zr626   2.368   1_545  S
O166      Zr1622   2.369   1_455  S
O166        H170   0.966       .  S
O167       Zr623   2.368   1_545  S
O167      Zr1619   2.370   1_455  S
O167        H172   0.966       .  S
O168       Zr870   2.369       .  S
O168       Zr402   2.370       .  S
C185        C233   1.475       .  S
C185        C186   1.402       .  A
C185        C190   1.402       .  A
C186        C187   1.403       .  A
C186        H191   1.084       .  S
C187       C1598   1.470       .  S
C187        C188   1.404       .  A
C188        C189   1.402       .  A
C188        H192   1.084       .  S
C189        C190   1.403       .  A
C190        H193   1.084       .  S
C194        C236   1.474       .  S
C194        C195   1.402       .  A
C194        C199   1.402       .  A
C195        C196   1.403       .  A
C195        H200   1.084       .  S
C196       C1592   1.470       .  S
C196        C197   1.403       .  A
C197        C198   1.403       .  A
C197        H201   1.084       .  S
C198        C199   1.403       .  A
C199        H202   1.084       .  S
C203        C221   1.484       .  S
C203        C204   1.405       .  A
C203        C208   1.406       .  A
C204        C205   1.402       .  A
C204        H209   1.084       .  S
C205        C206   1.401       .  A
C206        C207   1.403       .  A
C206        H210   1.084       .  S
C207        C389   1.469       .  S
C207        C208   1.402       .  A
C208        H211   1.083       .  S
C212        C224   1.484       .  S
C212        C213   1.405       .  A
C212        C217   1.406       .  A
C213        C214   1.402       .  A
C213        H218   1.083       .  S
C214        C215   1.401       .  A
C215        C216   1.403       .  A
C215        H219   1.084       .  S
C216        C395   1.469       .  S
C216        C217   1.402       .  A
C217        H220   1.084       .  S
C221        C222   1.403       .  A
C221        C226   1.409       .  A
C222        C223   1.398       .  A
C222        H227   1.082       .  S
C223        C224   1.410       .  A
C223        O228   1.373       .  S
C224        C225   1.405       .  A
C225        C226   1.402       .  A
C225        H229   1.083       .  S
C226        O230   1.372       .  S
O228        H476   0.992       .  S
O230        H231   0.992       .  S
H232        O716   0.992       .  S
C233       C1698   1.401   1_455  A
C233        C238   1.407       .  A
C234        C965   1.401       .  A
C234        C235   1.399       .  A
C234        H239   1.082       .  S
C235        C968   1.406       .  A
C235        O240   1.371       .  S
C236       C1699   1.406   1_455  A
C236        C237   1.403       .  A
C237        C238   1.401       .  A
C237        H241   1.084       .  S
C238        O242   1.371       .  S
O240        H244   0.992       .  S
O242        H243   0.991       .  S
O245       Zr257   2.440       .  S
O245        C247   1.287       .  A
O246       Zr405   2.424   1_554  S
C247        O490   1.286       .  A
C247        C327   1.471       .  S
O248       Zr260   2.443       .  S
O248       C1714   1.288       .  A
O249       Zr406   2.419       .  S
O249        C250   1.285       .  A
C250        O980   1.288       .  A
C250       C1050   1.470       .  S
O251       Zr260   2.439       .  S
O251        C253   1.287       .  A
O252       Zr283   2.424       .  S
C253        O496   1.287       .  A
C253        C336   1.471       .  S
O254       Zr257   2.443       .  S
O254       C1720   1.288       .  A
O255       Zr284   2.419   1_554  S
O255        C256   1.285       .  A
C256        O986   1.288       .  A
C256       C1041   1.470       .  S
Zr257       O258   2.433       .  S
Zr257       O259   2.436       .  S
Zr257       O385   2.376       .  S
Zr257       O386   2.373       .  S
Zr257      O1751   2.368   1_455  S
Zr257       O533   2.368       .  S
O258        H301   0.990       .  S
O259        H300   0.990       .  S
O259        H304   0.990       .  S
Zr260       O261   2.434       .  S
Zr260       O262   2.435       .  S
Zr260       O264   2.374       .  S
Zr260       O263   2.376       .  S
Zr260       O532   2.368       .  S
Zr260      O1754   2.369   1_455  S
O261        H302   0.990       .  S
O261        H305   0.990       .  S
O262        H295   0.990       .  S
O263       Zr379   2.376       .  S
O263       Zr527   2.380       .  S
O264       Zr379   2.373       .  S
O264      Zr1870   2.379   1_455  S
O264        H291   0.966       .  S
O265       Zr277   2.450       .  S
O265        C267   1.289       .  A
O266       Zr284   2.412   1_554  S
O266        C511   1.284       .  A
O268       Zr280   2.445       .  S
O268       C1002   1.288       .  A
O269       Zr283   2.423       .  S
O269        C270   1.286   1_455  A
C270       O1732   1.288       .  A
C270        C320   1.470   1_655  S
O271       Zr280   2.450       .  S
O271        C273   1.289       .  A
O272       Zr406   2.412       .  S
O272        C517   1.284       .  A
O274       Zr277   2.445       .  S
O274       C1008   1.288       .  A
O275       Zr405   2.423   1_554  S
O275        C276   1.286       .  A
C276       O1738   1.288   1_455  A
C276        C311   1.470       .  S
Zr277       O278   2.435       .  S
Zr277       O279   2.434       .  S
Zr277       O285   2.374   1_554  S
Zr277       O286   2.377   1_554  S
Zr277      O1021   2.370       .  S
O278        H298   0.990       .  S
O278        H303   0.990       .  S
O279        H299   0.990       .  S
Zr280       O281   2.434       .  S
Zr280       O282   2.435       .  S
Zr280       O408   2.378       .  S
Zr280       O407   2.374       .  S
Zr280      O1020   2.369       .  S
O281        H297   0.990       .  S
O282        H296   0.990       .  S
O282        H306   0.990       .  S
Zr283       O368   2.424       .  S
Zr283       O397   2.423       .  S
Zr283      O1872   2.382   1_455  S
Zr283       O288   2.382       .  S
Zr283       O411   2.383       .  S
Zr284       O371   2.419       .  S
Zr284       O394   2.412       .  S
Zr284      O1118   2.379   1_556  S
Zr284       O529   2.383       .  S
Zr284       O287   2.377   1_556  S
Zr284       O412   2.377       .  S
O285       Zr402   2.374       .  S
O285        H293   0.966       .  S
O286       Zr402   2.378       .  S
O286      Zr1137   2.382       .  S
O287       Zr989   2.368       .  S
O287       Zr521   2.371       .  S
O288      Zr1744   2.369   1_455  S
O288        H292   0.966       .  S
O289      Zr1741   2.370   1_455  S
O289       Zr405   2.383   1_554  S
O289        H294   0.966       .  S
O290       Zr992   2.369       .  S
O290       Zr524   2.370       .  S
O290       Zr406   2.377       .  S
C307        C355   1.475       .  S
C307        C308   1.402       .  A
C307        C312   1.402       .  A
C308        C309   1.403       .  A
C308        H313   1.084       .  S
C309       C1720   1.470       .  S
C309        C310   1.404       .  A
C310        C311   1.402       .  A
C310        H314   1.084       .  S
C311        C312   1.403       .  A
C312        H315   1.084       .  S
C316        C358   1.474       .  S
C316        C317   1.402       .  A
C316        C321   1.402       .  A
C317        C318   1.403       .  A
C317        H322   1.084       .  S
C318       C1714   1.470       .  S
C318        C319   1.403       .  A
C319        C320   1.403       .  A
C319        H323   1.084       .  S
C320        C321   1.403       .  A
C321        H324   1.084       .  S
C325        C343   1.484       .  S
C325        C326   1.405       .  A
C325        C330   1.406       .  A
C326        C327   1.402       .  A
C326        H331   1.084       .  S
C327        C328   1.401       .  A
C328        C329   1.403       .  A
C328        H332   1.084       .  S
C329        C511   1.469       .  S
C329        C330   1.402       .  A
C330        H333   1.083       .  S
C334        C346   1.484       .  S
C334        C335   1.405       .  A
C334        C339   1.406       .  A
C335        C336   1.402       .  A
C335        H340   1.083       .  S
C336        C337   1.401       .  A
C337        C338   1.403       .  A
C337        H341   1.084       .  S
C338        C517   1.469       .  S
C338        C339   1.402       .  A
C339        H342   1.084       .  S
C343        C344   1.403       .  A
C343        C348   1.409       .  A
C344        C345   1.398       .  A
C344        H349   1.082       .  S
C345        C346   1.410       .  A
C345        O350   1.373       .  S
C346        C347   1.405       .  A
C347        C348   1.402       .  A
C347        H351   1.083       .  S
C348        O352   1.372       .  S
O350        H598   0.992       .  S
O352        H353   0.992       .  S
C355       C1820   1.401   1_455  A
C355        C360   1.407       .  A
C356       C1087   1.401       .  A
C356        C357   1.399       .  A
C356        H361   1.082       .  S
C357       C1090   1.406       .  A
C357        O362   1.371       .  S
C358       C1821   1.406   1_455  A
C358        C359   1.403       .  A
C359        C360   1.401       .  A
C359        H363   1.084       .  S
C360        O364   1.371       .  S
O362        H366   0.992       .  S
O364        H365   0.991       .  S
O367       Zr379   2.440       .  S
O367        C369   1.287       .  A
C369        O612   1.286       .  A
C369        C449   1.471       .  S
O370       Zr382   2.443       .  S
O370       C1836   1.288       .  A
O371        C372   1.285       .  A
C372       O1102   1.288       .  A
C372       C1172   1.470       .  S
O373       Zr382   2.439       .  S
O373        C375   1.287       .  A
O374       Zr405   2.424       .  S
C375        O618   1.287       .  A
C375        C458   1.471       .  S
O376       Zr379   2.443       .  S
O376       C1842   1.288       .  A
O377       Zr406   2.419       .  S
O377        C378   1.285       .  A
C378       O1108   1.288       .  A
C378       C1163   1.470       .  S
Zr379       O380   2.433       .  S
Zr379       O381   2.436       .  S
Zr379      O1873   2.368   1_455  S
Zr379       O655   2.368       .  S
O380        H423   0.990       .  S
O381        H422   0.990       .  S
O381        H426   0.990       .  S
Zr382       O383   2.434       .  S
Zr382       O384   2.435       .  S
Zr382       O386   2.374   1_556  S
Zr382       O385   2.376   1_556  S
Zr382       O654   2.368       .  S
Zr382      O1876   2.369   1_455  S
O383        H424   0.990       .  S
O383        H427   0.990       .  S
O384        H417   0.990       .  S
O385       Zr649   2.380   1_554  S
O386      Zr1748   2.379   1_454  S
O386        H413   0.966       .  S
O387       Zr399   2.450       .  S
O387        C389   1.289       .  A
O388       Zr406   2.412       .  S
O388        C633   1.284       .  A
O390       Zr402   2.445       .  S
O390       C1124   1.288       .  A
O391       Zr405   2.423       .  S
O391        C392   1.286   1_455  A
C392       O1854   1.288       .  A
C392        C442   1.470   1_655  S
O393       Zr402   2.450       .  S
O393        C395   1.289       .  A
O394        C639   1.284       .  A
O396       Zr399   2.445       .  S
O396       C1130   1.288       .  A
O397        C398   1.286       .  A
C398       O1860   1.288   1_455  A
C398        C433   1.470       .  S
Zr399       O400   2.435       .  S
Zr399       O401   2.434       .  S
Zr399       O407   2.374       .  S
Zr399       O408   2.377       .  S
Zr399      O1143   2.370       .  S
O400        H420   0.990       .  S
O400        H425   0.990       .  S
O401        H421   0.990       .  S
Zr402       O403   2.434       .  S
Zr402       O404   2.435       .  S
Zr402      O1142   2.369       .  S
O403        H419   0.990       .  S
O404        H418   0.990       .  S
O404        H428   0.990       .  S
Zr405      O1750   2.382   1_455  S
Zr405       O410   2.382       .  S
Zr406       O996   2.379       .  S
Zr406       O651   2.383       .  S
Zr406       O409   2.377       .  S
O407        H415   0.966       .  S
O408      Zr1015   2.382       .  S
O409      Zr1111   2.368       .  S
O409       Zr643   2.371       .  S
O410      Zr1866   2.369   1_455  S
O410        H414   0.966       .  S
O411      Zr1863   2.370   1_455  S
O411        H416   0.966       .  S
O412      Zr1114   2.369       .  S
O412       Zr646   2.370       .  S
C429        C477   1.475       .  S
C429        C430   1.402       .  A
C429        C434   1.402       .  A
C430        C431   1.403       .  A
C430        H435   1.084       .  S
C431       C1842   1.470       .  S
C431        C432   1.404       .  A
C432        C433   1.402       .  A
C432        H436   1.084       .  S
C433        C434   1.403       .  A
C434        H437   1.084       .  S
C438        C480   1.474       .  S
C438        C439   1.402       .  A
C438        C443   1.402       .  A
C439        C440   1.403       .  A
C439        H444   1.084       .  S
C440       C1836   1.470       .  S
C440        C441   1.403       .  A
C441        C442   1.403       .  A
C441        H445   1.084       .  S
C442        C443   1.403       .  A
C443        H446   1.084       .  S
C447        C465   1.484       .  S
C447        C448   1.405       .  A
C447        C452   1.406       .  A
C448        C449   1.402       .  A
C448        H453   1.084       .  S
C449        C450   1.401       .  A
C450        C451   1.403       .  A
C450        H454   1.084       .  S
C451        C633   1.469       .  S
C451        C452   1.402       .  A
C452        H455   1.083       .  S
C456        C468   1.484       .  S
C456        C457   1.405       .  A
C456        C461   1.406       .  A
C457        C458   1.402       .  A
C457        H462   1.083       .  S
C458        C459   1.401       .  A
C459        C460   1.403       .  A
C459        H463   1.084       .  S
C460        C639   1.469       .  S
C460        C461   1.402       .  A
C461        H464   1.084       .  S
C465        C466   1.403       .  A
C465        C470   1.409       .  A
C466        C467   1.398       .  A
C466        H471   1.082       .  S
C467        C468   1.410       .  A
C467        O472   1.373       .  S
C468        C469   1.405       .  A
C469        C470   1.402       .  A
C469        H473   1.083       .  S
C470        O474   1.372       .  S
O472        H720   0.992       .  S
O474        H475   0.992       .  S
C477       C1942   1.401   1_455  A
C477        C482   1.407       .  A
C478       C1209   1.401       .  A
C478        C479   1.399       .  A
C478        H483   1.082       .  S
C479       C1212   1.406       .  A
C479        O484   1.371       .  S
C480       C1943   1.406   1_455  A
C480        C481   1.403       .  A
C481        C482   1.401       .  A
C481        H485   1.084       .  S
C482        O486   1.371       .  S
O484        H488   0.992       .  S
O486        H487   0.991       .  S
O489       Zr501   2.440       .  S
O489        C491   1.287       .  A
O490       Zr649   2.424   1_554  S
C491        C571   1.471       .  S
O492       Zr504   2.443       .  S
O492       C1958   1.288       .  A
O493       Zr650   2.419       .  S
O493        C494   1.285       .  A
C494       O1224   1.288       .  A
C494       C1294   1.470       .  S
O495       Zr504   2.439       .  S
O495        C497   1.287       .  A
O496       Zr527   2.424       .  S
C497        C580   1.471       .  S
O498       Zr501   2.443       .  S
O498       C1964   1.288       .  A
O499       Zr528   2.419   1_554  S
O499        C500   1.285       .  A
C500       O1230   1.288       .  A
C500       C1285   1.470       .  S
Zr501       O502   2.433       .  S
Zr501       O503   2.436       .  S
Zr501       O629   2.376       .  S
Zr501       O630   2.373       .  S
Zr501      O1995   2.368   1_455  S
O502        H545   0.990       .  S
O503        H544   0.990       .  S
O503        H548   0.990       .  S
Zr504       O505   2.434       .  S
Zr504       O506   2.435       .  S
Zr504       O508   2.374       .  S
Zr504       O507   2.376       .  S
Zr504      O1998   2.369   1_455  S
O505        H546   0.990       .  S
O505        H549   0.990       .  S
O506        H539   0.990       .  S
O507       Zr623   2.376       .  S
O508       Zr623   2.373       .  S
O508      Zr2114   2.379   1_455  S
O508        H535   0.966       .  S
O509       Zr521   2.450       .  S
O509        C511   1.289       .  A
O510       Zr528   2.412   1_554  S
O512       Zr524   2.445       .  S
O512       C1246   1.288       .  A
O513       Zr527   2.423       .  S
O513        C514   1.286   1_455  A
C514       O1976   1.288       .  A
C514        C564   1.470   1_655  S
O515       Zr524   2.450       .  S
O515        C517   1.289       .  A
O516       Zr650   2.412       .  S
O518       Zr521   2.445       .  S
O518       C1252   1.288       .  A
O519       Zr649   2.423   1_554  S
O519        C520   1.286       .  A
C520       O1982   1.288   1_455  A
C520        C555   1.470       .  S
Zr521       O522   2.435       .  S
Zr521       O523   2.434       .  S
Zr521       O529   2.374   1_554  S
Zr521       O530   2.377   1_554  S
Zr521      O1265   2.370       .  S
O522        H542   0.990       .  S
O522        H547   0.990       .  S
O523        H543   0.990       .  S
Zr524       O525   2.434       .  S
Zr524       O526   2.435       .  S
Zr524       O652   2.378       .  S
Zr524       O651   2.374       .  S
Zr524      O1264   2.369       .  S
O525        H541   0.990       .  S
O526        H540   0.990       .  S
O526        H550   0.990       .  S
Zr527       O612   2.424       .  S
Zr527       O641   2.423       .  S
Zr527      O2116   2.382   1_455  S
Zr527       O532   2.382       .  S
Zr527       O655   2.383       .  S
Zr528       O615   2.419       .  S
Zr528       O638   2.412       .  S
Zr528      O1362   2.379   1_556  S
Zr528       O531   2.377   1_556  S
Zr528       O656   2.377       .  S
O529       Zr646   2.374       .  S
O529        H537   0.966       .  S
O530       Zr646   2.378       .  S
O530      Zr1381   2.382       .  S
O531      Zr1233   2.368       .  S
O532      Zr1988   2.369   1_455  S
O532        H536   0.966       .  S
O533      Zr1985   2.370   1_455  S
O533       Zr649   2.383   1_554  S
O533        H538   0.966       .  S
O534      Zr1236   2.369       .  S
O534       Zr650   2.377       .  S
C551        C599   1.475       .  S
C551        C552   1.402       .  A
C551        C556   1.402       .  A
C552        C553   1.403       .  A
C552        H557   1.084       .  S
C553       C1964   1.470       .  S
C553        C554   1.404       .  A
C554        C555   1.402       .  A
C554        H558   1.084       .  S
C555        C556   1.403       .  A
C556        H559   1.084       .  S
C560        C602   1.474       .  S
C560        C561   1.402       .  A
C560        C565   1.402       .  A
C561        C562   1.403       .  A
C561        H566   1.084       .  S
C562       C1958   1.470       .  S
C562        C563   1.403       .  A
C563        C564   1.403       .  A
C563        H567   1.084       .  S
C564        C565   1.403       .  A
C565        H568   1.084       .  S
C569        C587   1.484       .  S
C569        C570   1.405       .  A
C569        C574   1.406       .  A
C570        C571   1.402       .  A
C570        H575   1.084       .  S
C571        C572   1.401       .  A
C572        C573   1.403       .  A
C572        H576   1.084       .  S
C573        C574   1.402       .  A
C574        H577   1.083       .  S
C578        C590   1.484       .  S
C578        C579   1.405       .  A
C578        C583   1.406       .  A
C579        C580   1.402       .  A
C579        H584   1.083       .  S
C580        C581   1.401       .  A
C581        C582   1.403       .  A
C581        H585   1.084       .  S
C582        C583   1.402       .  A
C583        H586   1.084       .  S
C587        C588   1.403   1_565  A
C587        C592   1.409       .  A
C588        C589   1.398       .  A
C588        H593   1.082       .  S
C589        C590   1.410   1_545  A
C589        O594   1.373       .  S
C590        C591   1.405       .  A
C591        C592   1.402       .  A
C591        H595   1.083       .  S
C592        O596   1.372       .  S
O596        H597   0.992       .  S
C599       C2064   1.401   1_455  A
C599        C604   1.407       .  A
C600       C1331   1.401       .  A
C600        C601   1.399       .  A
C600        H605   1.082       .  S
C601       C1334   1.406       .  A
C601        O606   1.371       .  S
C602       C2065   1.406   1_455  A
C602        C603   1.403       .  A
C603        C604   1.401       .  A
C603        H607   1.084       .  S
C604        O608   1.371       .  S
O606        H610   0.992       .  S
O608        H609   0.991       .  S
O611       Zr623   2.440       .  S
O611        C613   1.287       .  A
C613        C693   1.471       .  S
O614       Zr626   2.443       .  S
O614       C2080   1.288       .  A
O615        C616   1.285       .  A
C616       O1346   1.288       .  A
C616       C1416   1.470       .  S
O617       Zr626   2.439       .  S
O617        C619   1.287       .  A
O618       Zr649   2.424       .  S
C619        C702   1.471       .  S
O620       Zr623   2.443       .  S
O620       C2086   1.288       .  A
O621       Zr650   2.419       .  S
O621        C622   1.285       .  A
C622       O1352   1.288       .  A
C622       C1407   1.470       .  S
Zr623       O624   2.433       .  S
Zr623       O625   2.436       .  S
Zr623      O2117   2.368   1_455  S
O624        H667   0.990       .  S
O625        H666   0.990       .  S
O625        H670   0.990       .  S
Zr626       O627   2.434       .  S
Zr626       O628   2.435       .  S
Zr626       O630   2.374   1_556  S
Zr626       O629   2.376   1_556  S
Zr626      O2120   2.369   1_455  S
O627        H668   0.990       .  S
O627        H671   0.990       .  S
O628        H661   0.990       .  S
O630      Zr1992   2.379   1_454  S
O630        H657   0.966       .  S
O631       Zr643   2.450       .  S
O631        C633   1.289       .  A
O632       Zr650   2.412       .  S
O634       Zr646   2.445       .  S
O634       C1368   1.288       .  A
O635       Zr649   2.423       .  S
O635        C636   1.286   1_455  A
C636       O2098   1.288       .  A
C636        C686   1.470   1_655  S
O637       Zr646   2.450       .  S
O637        C639   1.289       .  A
O640       Zr643   2.445       .  S
O640       C1374   1.288       .  A
O641        C642   1.286       .  A
C642       O2104   1.288   1_455  A
C642        C677   1.470       .  S
Zr643       O644   2.435       .  S
Zr643       O645   2.434       .  S
Zr643       O651   2.374       .  S
Zr643       O652   2.377       .  S
Zr643      O1387   2.370       .  S
O644        H664   0.990       .  S
O644        H669   0.990       .  S
O645        H665   0.990       .  S
Zr646       O647   2.434       .  S
Zr646       O648   2.435       .  S
Zr646      O1386   2.369       .  S
O647        H663   0.990       .  S
O648        H662   0.990       .  S
O648        H672   0.990       .  S
Zr649      O1994   2.382   1_455  S
Zr649       O654   2.382       .  S
Zr650      O1240   2.379       .  S
Zr650       O653   2.377       .  S
O651        H659   0.966       .  S
O652      Zr1259   2.382       .  S
O653      Zr1355   2.368       .  S
O654      Zr2110   2.369   1_455  S
O654        H658   0.966       .  S
O655      Zr2107   2.370   1_455  S
O655        H660   0.966       .  S
O656      Zr1358   2.369       .  S
C673        C721   1.475       .  S
C673        C674   1.402       .  A
C673        C678   1.402       .  A
C674        C675   1.403       .  A
C674        H679   1.084       .  S
C675       C2086   1.470       .  S
C675        C676   1.404       .  A
C676        C677   1.402       .  A
C676        H680   1.084       .  S
C677        C678   1.403       .  A
C678        H681   1.084       .  S
C682        C724   1.474       .  S
C682        C683   1.402       .  A
C682        C687   1.402       .  A
C683        C684   1.403       .  A
C683        H688   1.084       .  S
C684       C2080   1.470       .  S
C684        C685   1.403       .  A
C685        C686   1.403       .  A
C685        H689   1.084       .  S
C686        C687   1.403       .  A
C687        H690   1.084       .  S
C691        C709   1.484       .  S
C691        C692   1.405       .  A
C691        C696   1.406       .  A
C692        C693   1.402       .  A
C692        H697   1.084       .  S
C693        C694   1.401       .  A
C694        C695   1.403       .  A
C694        H698   1.084       .  S
C695        C696   1.402       .  A
C696        H699   1.083       .  S
C700        C712   1.484       .  S
C700        C701   1.405       .  A
C700        C705   1.406       .  A
C701        C702   1.402       .  A
C701        H706   1.083       .  S
C702        C703   1.401       .  A
C703        C704   1.403       .  A
C703        H707   1.084       .  S
C704        C705   1.402       .  A
C705        H708   1.084       .  S
C709        C710   1.403   1_565  A
C709        C714   1.409       .  A
C710        C711   1.398       .  A
C710        H715   1.082       .  S
C711        C712   1.410   1_545  A
C711        O716   1.373       .  S
C712        C713   1.405       .  A
C713        C714   1.402       .  A
C713        H717   1.083       .  S
C714        O718   1.372       .  S
O718        H719   0.992       .  S
C721       C2186   1.401   1_455  A
C721        C726   1.407       .  A
C722       C1453   1.401       .  A
C722        C723   1.399       .  A
C722        H727   1.082       .  S
C723       C1456   1.406       .  A
C723        O728   1.371       .  S
C724       C2187   1.406   1_455  A
C724        C725   1.403       .  A
C725        C726   1.401       .  A
C725        H729   1.084       .  S
C726        O730   1.371       .  S
O728        H732   0.992       .  S
O730        H731   0.991       .  S
O733       Zr745   2.440       .  S
O733        C735   1.287       .  A
O734       Zr893   2.424   1_554  S
O734       C1223   1.286   1_545  A
C735        O978   1.286       .  A
C735        C815   1.471       .  S
O736       Zr748   2.443       .  S
O737       Zr894   2.419       .  S
O737        C738   1.285       .  A
C738       O1468   1.288       .  A
C738       C1538   1.470       .  S
O739       Zr748   2.439       .  S
O739        C741   1.287       .  A
O740       Zr771   2.424       .  S
O740       C1229   1.287   1_545  A
C741        O984   1.287       .  A
C741        C824   1.471       .  S
O742       Zr745   2.443       .  S
O743       Zr772   2.419   1_554  S
O743        C744   1.285       .  A
C744       O1474   1.288       .  A
C744       C1529   1.470       .  S
Zr745       O746   2.433       .  S
Zr745       O747   2.436       .  S
Zr745       O873   2.376       .  S
Zr745       O874   2.373       .  S
Zr745      O1021   2.368       .  S
O746        H789   0.990       .  S
O747        H788   0.990       .  S
O747        H792   0.990       .  S
Zr748       O749   2.434       .  S
Zr748       O750   2.435       .  S
Zr748       O752   2.374       .  S
Zr748       O751   2.376       .  S
Zr748      O1020   2.368       .  S
O749        H790   0.990       .  S
O749        H793   0.990       .  S
O750        H783   0.990       .  S
O751       Zr867   2.376       .  S
O751      Zr1015   2.380       .  S
O752       Zr867   2.373       .  S
O752        H779   0.966       .  S
O753       Zr765   2.450       .  S
O753        C755   1.289   1_545  A
O754       Zr772   2.412   1_554  S
O754        C999   1.284       .  A
C755       O1242   1.284       .  A
C755       C1305   1.469       .  S
O756       Zr768   2.445       .  S
O756       C1490   1.288       .  A
O757       Zr771   2.423       .  S
O757        C758   1.286       .  A
C758        C808   1.470       .  S
O759       Zr768   2.450       .  S
O759        C761   1.289   1_545  A
O760       Zr894   2.412       .  S
O760       C1005   1.284       .  A
C761       O1248   1.284       .  A
C761       C1314   1.469       .  S
O762       Zr765   2.445       .  S
O762       C1496   1.288       .  A
O763       Zr893   2.423   1_554  S
O763        C764   1.286       .  A
C764        C799   1.470       .  S
Zr765       O766   2.435       .  S
Zr765       O767   2.434       .  S
Zr765       O773   2.374   1_554  S
Zr765       O774   2.377   1_554  S
Zr765      O1509   2.370       .  S
Zr765      O1263   2.371   1_545  S
O766        H786   0.990       .  S
O766        H791   0.990       .  S
O767        H787   0.990       .  S
Zr768       O769   2.434       .  S
Zr768       O770   2.435       .  S
Zr768       O896   2.378       .  S
Zr768       O895   2.374       .  S
Zr768      O1266   2.370   1_545  S
Zr768      O1508   2.369       .  S
O769        H785   0.990       .  S
O770        H784   0.990       .  S
O770        H794   0.990       .  S
Zr771       O856   2.424       .  S
Zr771       O885   2.423       .  S
Zr771      O1239   2.380   1_545  S
Zr771       O776   2.382       .  S
Zr771       O899   2.383       .  S
Zr772       O859   2.419       .  S
Zr772       O882   2.412       .  S
Zr772      O1606   2.379   1_556  S
Zr772      O1017   2.383       .  S
Zr772       O775   2.377   1_556  S
Zr772       O900   2.377       .  S
O773       Zr890   2.374       .  S
O773      Zr1260   2.383   1_545  S
O773        H781   0.966       .  S
O774       Zr890   2.378       .  S
O774      Zr1625   2.382       .  S
O775      Zr1477   2.368       .  S
O775      Zr1009   2.371       .  S
O776      Zr1236   2.368   1_545  S
O776        H780   0.966       .  S
O777      Zr1233   2.368   1_545  S
O777       Zr893   2.383   1_554  S
O777        H782   0.966       .  S
O778      Zr1480   2.369       .  S
O778      Zr1012   2.370       .  S
O778       Zr894   2.377       .  S
C795        C843   1.475       .  S
C795        C796   1.402       .  A
C795        C800   1.402       .  A
C796        C797   1.403       .  A
C796        H801   1.084       .  S
C797        C798   1.404       .  A
C798        C799   1.402       .  A
C798        H802   1.084       .  S
C799        C800   1.403       .  A
C800        H803   1.084       .  S
C804        C846   1.474       .  S
C804        C805   1.402       .  A
C804        C809   1.402       .  A
C805        C806   1.403       .  A
C805        H810   1.084       .  S
C806        C807   1.403       .  A
C807        C808   1.403       .  A
C807        H811   1.084       .  S
C808        C809   1.403       .  A
C809        H812   1.084       .  S
C813        C831   1.484       .  S
C813        C814   1.405       .  A
C813        C818   1.406       .  A
C814        C815   1.402       .  A
C814        H819   1.084       .  S
C815        C816   1.401       .  A
C816        C817   1.403       .  A
C816        H820   1.084       .  S
C817        C999   1.469       .  S
C817        C818   1.402       .  A
C818        H821   1.083       .  S
C822        C834   1.484       .  S
C822        C823   1.405       .  A
C822        C827   1.406       .  A
C823        C824   1.402       .  A
C823        H828   1.083       .  S
C824        C825   1.401       .  A
C825        C826   1.403       .  A
C825        H829   1.084       .  S
C826       C1005   1.469       .  S
C826        C827   1.402       .  A
C827        H830   1.084       .  S
C831        C832   1.403       .  A
C831        C836   1.409       .  A
C832        C833   1.398       .  A
C832        H837   1.082       .  S
C833        C834   1.410       .  A
C833        O838   1.373       .  S
C834        C835   1.405       .  A
C835        C836   1.402       .  A
C835        H839   1.083       .  S
C836        O840   1.372       .  S
O838       H1086   0.992       .  S
O840        H841   0.992       .  S
H842       O1326   0.992       .  S
C843        C848   1.407       .  A
C844       C1575   1.401       .  A
C844        C845   1.399       .  A
C844        H849   1.082       .  S
C845       C1578   1.406       .  A
C845        O850   1.371       .  S
C846        C847   1.403       .  A
C847        C848   1.401       .  A
C847        H851   1.084       .  S
C848        O852   1.371       .  S
O850        H854   0.992       .  S
O852        H853   0.991       .  S
O855       Zr867   2.440       .  S
O855        C857   1.287       .  A
O856       C1345   1.286   1_545  A
C857       O1100   1.286       .  A
C857        C937   1.471       .  S
O858       Zr870   2.443       .  S
O859        C860   1.285       .  A
C860       O1590   1.288       .  A
C860       C1660   1.470       .  S
O861       Zr870   2.439       .  S
O861        C863   1.287       .  A
O862       Zr893   2.424       .  S
O862       C1351   1.287   1_545  A
C863       O1106   1.287       .  A
C863        C946   1.471       .  S
O864       Zr867   2.443       .  S
O865       Zr894   2.419       .  S
O865        C866   1.285       .  A
C866       O1596   1.288       .  A
C866       C1651   1.470       .  S
Zr867       O868   2.433       .  S
Zr867       O869   2.436       .  S
Zr867      O1143   2.368       .  S
O868        H911   0.990       .  S
O869        H910   0.990       .  S
O869        H914   0.990       .  S
Zr870       O871   2.434       .  S
Zr870       O872   2.435       .  S
Zr870       O874   2.374   1_556  S
Zr870       O873   2.376   1_556  S
Zr870      O1142   2.368       .  S
O871        H912   0.990       .  S
O871        H915   0.990       .  S
O872        H905   0.990       .  S
O873      Zr1137   2.380   1_554  S
O874        H901   0.966       .  S
O875       Zr887   2.450       .  S
O875        C877   1.289   1_545  A
O876       Zr894   2.412       .  S
O876       C1121   1.284       .  A
C877       O1364   1.284       .  A
C877       C1427   1.469       .  S
O878       Zr890   2.445       .  S
O878       C1612   1.288       .  A
O879       Zr893   2.423       .  S
O879        C880   1.286       .  A
C880        C930   1.470       .  S
O881       Zr890   2.450       .  S
O881        C883   1.289   1_545  A
O882       C1127   1.284       .  A
C883       O1370   1.284       .  A
C883       C1436   1.469       .  S
O884       Zr887   2.445       .  S
O884       C1618   1.288       .  A
O885        C886   1.286       .  A
C886        C921   1.470       .  S
Zr887       O888   2.435       .  S
Zr887       O889   2.434       .  S
Zr887       O895   2.374       .  S
Zr887       O896   2.377       .  S
Zr887      O1631   2.370       .  S
Zr887      O1385   2.371   1_545  S
O888        H908   0.990       .  S
O888        H913   0.990       .  S
O889        H909   0.990       .  S
Zr890       O891   2.434       .  S
Zr890       O892   2.435       .  S
Zr890      O1388   2.370   1_545  S
Zr890      O1630   2.369       .  S
O891        H907   0.990       .  S
O892        H906   0.990       .  S
O892        H916   0.990       .  S
Zr893      O1361   2.380   1_546  S
Zr893       O898   2.382       .  S
Zr894      O1484   2.379       .  S
Zr894      O1139   2.383       .  S
Zr894       O897   2.377       .  S
O895      Zr1382   2.383   1_545  S
O895        H903   0.966       .  S
O896      Zr1503   2.382       .  S
O897      Zr1599   2.368       .  S
O897      Zr1131   2.371       .  S
O898      Zr1358   2.368   1_545  S
O898        H902   0.966       .  S
O899      Zr1355   2.368   1_545  S
O899        H904   0.966       .  S
O900      Zr1602   2.369       .  S
O900      Zr1134   2.370       .  S
C917        C965   1.475       .  S
C917        C918   1.402       .  A
C917        C922   1.402       .  A
C918        C919   1.403       .  A
C918        H923   1.084       .  S
C919        C920   1.404       .  A
C920        C921   1.402       .  A
C920        H924   1.084       .  S
C921        C922   1.403       .  A
C922        H925   1.084       .  S
C926        C968   1.474       .  S
C926        C927   1.402       .  A
C926        C931   1.402       .  A
C927        C928   1.403       .  A
C927        H932   1.084       .  S
C928        C929   1.403       .  A
C929        C930   1.403       .  A
C929        H933   1.084       .  S
C930        C931   1.403       .  A
C931        H934   1.084       .  S
C935        C953   1.484       .  S
C935        C936   1.405       .  A
C935        C940   1.406       .  A
C936        C937   1.402       .  A
C936        H941   1.084       .  S
C937        C938   1.401       .  A
C938        C939   1.403       .  A
C938        H942   1.084       .  S
C939       C1121   1.469       .  S
C939        C940   1.402       .  A
C940        H943   1.083       .  S
C944        C956   1.484       .  S
C944        C945   1.405       .  A
C944        C949   1.406       .  A
C945        C946   1.402       .  A
C945        H950   1.083       .  S
C946        C947   1.401       .  A
C947        C948   1.403       .  A
C947        H951   1.084       .  S
C948       C1127   1.469       .  S
C948        C949   1.402       .  A
C949        H952   1.084       .  S
C953        C954   1.403       .  A
C953        C958   1.409       .  A
C954        C955   1.398       .  A
C954        H959   1.082       .  S
C955        C956   1.410       .  A
C955        O960   1.373       .  S
C956        C957   1.405       .  A
C957        C958   1.402       .  A
C957        H961   1.083       .  S
C958        O962   1.372       .  S
O960       H1208   0.992       .  S
O962        H963   0.992       .  S
H964       O1448   0.992       .  S
C965        C970   1.407       .  A
C966       C1697   1.401       .  A
C966        C967   1.399       .  A
C966        H971   1.082       .  S
C967       C1700   1.406       .  A
C967        O972   1.371       .  S
C968        C969   1.403       .  A
C969        C970   1.401       .  A
C969        H973   1.084       .  S
C970        O974   1.371       .  S
O972        H976   0.992       .  S
O974        H975   0.991       .  S
O977       Zr989   2.440       .  S
O977        C979   1.287       .  A
O978      Zr1137   2.424   1_554  S
C979       O1222   1.286       .  A
C979       C1059   1.471       .  S
O980       Zr992   2.443       .  S
O981      Zr1138   2.419       .  S
O981        C982   1.285       .  A
C982       O1712   1.288       .  A
C982       C1782   1.470       .  S
O983       Zr992   2.439       .  S
O983        C985   1.287       .  A
O984      Zr1015   2.424       .  S
C985       O1228   1.287       .  A
C985       C1068   1.471       .  S
O986       Zr989   2.443       .  S
O987      Zr1016   2.419   1_554  S
O987        C988   1.285       .  A
C988       O1718   1.288       .  A
C988       C1773   1.470       .  S
Zr989       O990   2.433       .  S
Zr989       O991   2.436       .  S
Zr989      O1117   2.376       .  S
Zr989      O1118   2.373       .  S
Zr989      O1265   2.368       .  S
O990       H1033   0.990       .  S
O991       H1032   0.990       .  S
O991       H1036   0.990       .  S
Zr992       O993   2.434       .  S
Zr992       O994   2.435       .  S
Zr992       O996   2.374       .  S
Zr992       O995   2.376       .  S
Zr992      O1264   2.368       .  S
O993       H1034   0.990       .  S
O993       H1037   0.990       .  S
O994       H1027   0.990       .  S
O995      Zr1111   2.376       .  S
O995      Zr1259   2.380       .  S
O996      Zr1111   2.373       .  S
O996       H1023   0.966       .  S
O997      Zr1009   2.450       .  S
O997        C999   1.289       .  A
O998      Zr1016   2.412   1_554  S
O998       C1243   1.284       .  A
O1000     Zr1012   2.445       .  S
O1000      C1734   1.288       .  A
O1001     Zr1015   2.423       .  S
O1001      C1002   1.286       .  A
C1002      C1052   1.470       .  S
O1003     Zr1012   2.450       .  S
O1003      C1005   1.289       .  A
O1004     Zr1138   2.412       .  S
O1004      C1249   1.284       .  A
O1006     Zr1009   2.445       .  S
O1006      C1740   1.288       .  A
O1007     Zr1137   2.423   1_554  S
O1007      C1008   1.286       .  A
C1008      C1043   1.470       .  S
Zr1009     O1010   2.435       .  S
Zr1009     O1011   2.434       .  S
Zr1009     O1017   2.374   1_554  S
Zr1009     O1018   2.377   1_554  S
Zr1009     O1753   2.370       .  S
O1010      H1030   0.990       .  S
O1010      H1035   0.990       .  S
O1011      H1031   0.990       .  S
Zr1012     O1013   2.434       .  S
Zr1012     O1014   2.435       .  S
Zr1012     O1140   2.378       .  S
Zr1012     O1139   2.374       .  S
Zr1012     O1752   2.369       .  S
O1013      H1029   0.990       .  S
O1014      H1028   0.990       .  S
O1014      H1038   0.990       .  S
Zr1015     O1100   2.424       .  S
Zr1015     O1129   2.423       .  S
Zr1015     O1020   2.382       .  S
Zr1015     O1143   2.383       .  S
Zr1016     O1103   2.419       .  S
Zr1016     O1126   2.412       .  S
Zr1016     O1850   2.379   1_556  S
Zr1016     O1261   2.383       .  S
Zr1016     O1019   2.377   1_556  S
Zr1016     O1144   2.377       .  S
O1017     Zr1134   2.374       .  S
O1017      H1025   0.966       .  S
O1018     Zr1134   2.378       .  S
O1018     Zr1869   2.382       .  S
O1019     Zr1721   2.368       .  S
O1019     Zr1253   2.371       .  S
O1020      H1024   0.966       .  S
O1021     Zr1137   2.383   1_554  S
O1021      H1026   0.966       .  S
O1022     Zr1724   2.369       .  S
O1022     Zr1256   2.370       .  S
O1022     Zr1138   2.377       .  S
C1039      C1087   1.475       .  S
C1039      C1040   1.402       .  A
C1039      C1044   1.402       .  A
C1040      C1041   1.403       .  A
C1040      H1045   1.084       .  S
C1041      C1042   1.404       .  A
C1042      C1043   1.402       .  A
C1042      H1046   1.084       .  S
C1043      C1044   1.403       .  A
C1044      H1047   1.084       .  S
C1048      C1090   1.474       .  S
C1048      C1049   1.402       .  A
C1048      C1053   1.402       .  A
C1049      C1050   1.403       .  A
C1049      H1054   1.084       .  S
C1050      C1051   1.403       .  A
C1051      C1052   1.403       .  A
C1051      H1055   1.084       .  S
C1052      C1053   1.403       .  A
C1053      H1056   1.084       .  S
C1057      C1075   1.484       .  S
C1057      C1058   1.405       .  A
C1057      C1062   1.406       .  A
C1058      C1059   1.402       .  A
C1058      H1063   1.084       .  S
C1059      C1060   1.401       .  A
C1060      C1061   1.403       .  A
C1060      H1064   1.084       .  S
C1061      C1243   1.469       .  S
C1061      C1062   1.402       .  A
C1062      H1065   1.083       .  S
C1066      C1078   1.484       .  S
C1066      C1067   1.405       .  A
C1066      C1071   1.406       .  A
C1067      C1068   1.402       .  A
C1067      H1072   1.083       .  S
C1068      C1069   1.401       .  A
C1069      C1070   1.403       .  A
C1069      H1073   1.084       .  S
C1070      C1249   1.469       .  S
C1070      C1071   1.402       .  A
C1071      H1074   1.084       .  S
C1075      C1076   1.403       .  A
C1075      C1080   1.409       .  A
C1076      C1077   1.398       .  A
C1076      H1081   1.082       .  S
C1077      C1078   1.410       .  A
C1077      O1082   1.373       .  S
C1078      C1079   1.405       .  A
C1079      C1080   1.402       .  A
C1079      H1083   1.083       .  S
C1080      O1084   1.372       .  S
O1082      H1330   0.992       .  S
O1084      H1085   0.992       .  S
C1087      C1092   1.407       .  A
C1088      C1819   1.401       .  A
C1088      C1089   1.399       .  A
C1088      H1093   1.082       .  S
C1089      C1822   1.406       .  A
C1089      O1094   1.371       .  S
C1090      C1091   1.403       .  A
C1091      C1092   1.401       .  A
C1091      H1095   1.084       .  S
C1092      O1096   1.371       .  S
O1094      H1098   0.992       .  S
O1096      H1097   0.991       .  S
O1099     Zr1111   2.440       .  S
O1099      C1101   1.287       .  A
C1101      O1344   1.286       .  A
C1101      C1181   1.471       .  S
O1102     Zr1114   2.443       .  S
O1103      C1104   1.285       .  A
C1104      O1834   1.288       .  A
C1104      C1904   1.470       .  S
O1105     Zr1114   2.439       .  S
O1105      C1107   1.287       .  A
O1106     Zr1137   2.424       .  S
C1107      O1350   1.287       .  A
C1107      C1190   1.471       .  S
O1108     Zr1111   2.443       .  S
O1109     Zr1138   2.419       .  S
O1109      C1110   1.285       .  A
C1110      O1840   1.288       .  A
C1110      C1895   1.470       .  S
Zr1111     O1112   2.433       .  S
Zr1111     O1113   2.436       .  S
Zr1111     O1387   2.368       .  S
O1112      H1155   0.990       .  S
O1113      H1154   0.990       .  S
O1113      H1158   0.990       .  S
Zr1114     O1115   2.434       .  S
Zr1114     O1116   2.435       .  S
Zr1114     O1118   2.374   1_556  S
Zr1114     O1117   2.376   1_556  S
Zr1114     O1386   2.368       .  S
O1115      H1156   0.990       .  S
O1115      H1159   0.990       .  S
O1116      H1149   0.990       .  S
O1117     Zr1381   2.380   1_554  S
O1118      H1145   0.966       .  S
O1119     Zr1131   2.450       .  S
O1119      C1121   1.289       .  A
O1120     Zr1138   2.412       .  S
O1120      C1365   1.284       .  A
O1122     Zr1134   2.445       .  S
O1122      C1856   1.288       .  A
O1123     Zr1137   2.423       .  S
O1123      C1124   1.286       .  A
C1124      C1174   1.470       .  S
O1125     Zr1134   2.450       .  S
O1125      C1127   1.289       .  A
O1126      C1371   1.284       .  A
O1128     Zr1131   2.445       .  S
O1128      C1862   1.288       .  A
O1129      C1130   1.286       .  A
C1130      C1165   1.470       .  S
Zr1131     O1132   2.435       .  S
Zr1131     O1133   2.434       .  S
Zr1131     O1139   2.374       .  S
Zr1131     O1140   2.377       .  S
Zr1131     O1875   2.370       .  S
O1132      H1152   0.990       .  S
O1132      H1157   0.990       .  S
O1133      H1153   0.990       .  S
Zr1134     O1135   2.434       .  S
Zr1134     O1136   2.435       .  S
Zr1134     O1874   2.369       .  S
O1135      H1151   0.990       .  S
O1136      H1150   0.990       .  S
O1136      H1160   0.990       .  S
Zr1137     O1142   2.382       .  S
Zr1138     O1728   2.379       .  S
Zr1138     O1383   2.383       .  S
Zr1138     O1141   2.377       .  S
O1139      H1147   0.966       .  S
O1140     Zr1747   2.382       .  S
O1141     Zr1843   2.368       .  S
O1141     Zr1375   2.371       .  S
O1142      H1146   0.966       .  S
O1143      H1148   0.966       .  S
O1144     Zr1846   2.369       .  S
O1144     Zr1378   2.370       .  S
C1161      C1209   1.475       .  S
C1161      C1162   1.402       .  A
C1161      C1166   1.402       .  A
C1162      C1163   1.403       .  A
C1162      H1167   1.084       .  S
C1163      C1164   1.404       .  A
C1164      C1165   1.402       .  A
C1164      H1168   1.084       .  S
C1165      C1166   1.403       .  A
C1166      H1169   1.084       .  S
C1170      C1212   1.474       .  S
C1170      C1171   1.402       .  A
C1170      C1175   1.402       .  A
C1171      C1172   1.403       .  A
C1171      H1176   1.084       .  S
C1172      C1173   1.403       .  A
C1173      C1174   1.403       .  A
C1173      H1177   1.084       .  S
C1174      C1175   1.403       .  A
C1175      H1178   1.084       .  S
C1179      C1197   1.484       .  S
C1179      C1180   1.405       .  A
C1179      C1184   1.406       .  A
C1180      C1181   1.402       .  A
C1180      H1185   1.084       .  S
C1181      C1182   1.401       .  A
C1182      C1183   1.403       .  A
C1182      H1186   1.084       .  S
C1183      C1365   1.469       .  S
C1183      C1184   1.402       .  A
C1184      H1187   1.083       .  S
C1188      C1200   1.484       .  S
C1188      C1189   1.405       .  A
C1188      C1193   1.406       .  A
C1189      C1190   1.402       .  A
C1189      H1194   1.083       .  S
C1190      C1191   1.401       .  A
C1191      C1192   1.403       .  A
C1191      H1195   1.084       .  S
C1192      C1371   1.469       .  S
C1192      C1193   1.402       .  A
C1193      H1196   1.084       .  S
C1197      C1198   1.403       .  A
C1197      C1202   1.409       .  A
C1198      C1199   1.398       .  A
C1198      H1203   1.082       .  S
C1199      C1200   1.410       .  A
C1199      O1204   1.373       .  S
C1200      C1201   1.405       .  A
C1201      C1202   1.402       .  A
C1201      H1205   1.083       .  S
C1202      O1206   1.372       .  S
O1204      H1452   0.992       .  S
O1206      H1207   0.992       .  S
C1209      C1214   1.407       .  A
C1210      C1941   1.401       .  A
C1210      C1211   1.399       .  A
C1210      H1215   1.082       .  S
C1211      C1944   1.406       .  A
C1211      O1216   1.371       .  S
C1212      C1213   1.403       .  A
C1213      C1214   1.401       .  A
C1213      H1217   1.084       .  S
C1214      O1218   1.371       .  S
O1216      H1220   0.992       .  S
O1218      H1219   0.991       .  S
O1221     Zr1233   2.440       .  S
O1221      C1223   1.287       .  A
O1222     Zr1381   2.424   1_554  S
C1223      C1303   1.471       .  S
O1224     Zr1236   2.443       .  S
O1225     Zr1382   2.419       .  S
O1225      C1226   1.285       .  A
C1226      O1956   1.288       .  A
C1226      C2026   1.470       .  S
O1227     Zr1236   2.439       .  S
O1227      C1229   1.287       .  A
O1228     Zr1259   2.424       .  S
C1229      C1312   1.471       .  S
O1230     Zr1233   2.443       .  S
O1231     Zr1260   2.419   1_554  S
O1231      C1232   1.285       .  A
C1232      O1962   1.288       .  A
C1232      C2017   1.470       .  S
Zr1233     O1234   2.433       .  S
Zr1233     O1235   2.436       .  S
Zr1233     O1361   2.376       .  S
Zr1233     O1362   2.373       .  S
O1234      H1277   0.990       .  S
O1235      H1276   0.990       .  S
O1235      H1280   0.990       .  S
Zr1236     O1237   2.434       .  S
Zr1236     O1238   2.435       .  S
Zr1236     O1240   2.374       .  S
Zr1236     O1239   2.376       .  S
O1237      H1278   0.990       .  S
O1237      H1281   0.990       .  S
O1238      H1271   0.990       .  S
O1239     Zr1355   2.376       .  S
O1240     Zr1355   2.373       .  S
O1240      H1267   0.966       .  S
O1241     Zr1253   2.450       .  S
O1241      C1243   1.289       .  A
O1242     Zr1260   2.412   1_554  S
O1244     Zr1256   2.445       .  S
O1244      C1978   1.288       .  A
O1245     Zr1259   2.423       .  S
O1245      C1246   1.286       .  A
C1246      C1296   1.470       .  S
O1247     Zr1256   2.450       .  S
O1247      C1249   1.289       .  A
O1248     Zr1382   2.412       .  S
O1250     Zr1253   2.445       .  S
O1250      C1984   1.288       .  A
O1251     Zr1381   2.423   1_554  S
O1251      C1252   1.286       .  A
C1252      C1287   1.470       .  S
Zr1253     O1254   2.435       .  S
Zr1253     O1255   2.434       .  S
Zr1253     O1261   2.374   1_554  S
Zr1253     O1262   2.377   1_554  S
Zr1253     O1997   2.370       .  S
O1254      H1274   0.990       .  S
O1254      H1279   0.990       .  S
O1255      H1275   0.990       .  S
Zr1256     O1257   2.434       .  S
Zr1256     O1258   2.435       .  S
Zr1256     O1384   2.378       .  S
Zr1256     O1383   2.374       .  S
Zr1256     O1996   2.369       .  S
O1257      H1273   0.990       .  S
O1258      H1272   0.990       .  S
O1258      H1282   0.990       .  S
Zr1259     O1344   2.424       .  S
Zr1259     O1373   2.423       .  S
Zr1259     O1264   2.382       .  S
Zr1259     O1387   2.383       .  S
Zr1260     O1347   2.419       .  S
Zr1260     O1370   2.412       .  S
Zr1260     O2094   2.379   1_556  S
Zr1260     O1263   2.377   1_556  S
Zr1260     O1388   2.377       .  S
O1261     Zr1378   2.374       .  S
O1261      H1269   0.966       .  S
O1262     Zr1378   2.378       .  S
O1262     Zr2113   2.382       .  S
O1263     Zr1965   2.368       .  S
O1264      H1268   0.966       .  S
O1265     Zr1381   2.383   1_554  S
O1265      H1270   0.966       .  S
O1266     Zr1968   2.369       .  S
O1266     Zr1382   2.377       .  S
C1283      C1331   1.475       .  S
C1283      C1284   1.402       .  A
C1283      C1288   1.402       .  A
C1284      C1285   1.403       .  A
C1284      H1289   1.084       .  S
C1285      C1286   1.404       .  A
C1286      C1287   1.402       .  A
C1286      H1290   1.084       .  S
C1287      C1288   1.403       .  A
C1288      H1291   1.084       .  S
C1292      C1334   1.474       .  S
C1292      C1293   1.402       .  A
C1292      C1297   1.402       .  A
C1293      C1294   1.403       .  A
C1293      H1298   1.084       .  S
C1294      C1295   1.403       .  A
C1295      C1296   1.403       .  A
C1295      H1299   1.084       .  S
C1296      C1297   1.403       .  A
C1297      H1300   1.084       .  S
C1301      C1319   1.484       .  S
C1301      C1302   1.405       .  A
C1301      C1306   1.406       .  A
C1302      C1303   1.402       .  A
C1302      H1307   1.084       .  S
C1303      C1304   1.401       .  A
C1304      C1305   1.403       .  A
C1304      H1308   1.084       .  S
C1305      C1306   1.402       .  A
C1306      H1309   1.083       .  S
C1310      C1322   1.484       .  S
C1310      C1311   1.405       .  A
C1310      C1315   1.406       .  A
C1311      C1312   1.402       .  A
C1311      H1316   1.083       .  S
C1312      C1313   1.401       .  A
C1313      C1314   1.403       .  A
C1313      H1317   1.084       .  S
C1314      C1315   1.402       .  A
C1315      H1318   1.084       .  S
C1319      C1320   1.403   1_565  A
C1319      C1324   1.409       .  A
C1320      C1321   1.398       .  A
C1320      H1325   1.082       .  S
C1321      C1322   1.410   1_545  A
C1321      O1326   1.373       .  S
C1322      C1323   1.405       .  A
C1323      C1324   1.402       .  A
C1323      H1327   1.083       .  S
C1324      O1328   1.372       .  S
O1328      H1329   0.992       .  S
C1331      C1336   1.407       .  A
C1332      C2063   1.401       .  A
C1332      C1333   1.399       .  A
C1332      H1337   1.082       .  S
C1333      C2066   1.406       .  A
C1333      O1338   1.371       .  S
C1334      C1335   1.403       .  A
C1335      C1336   1.401       .  A
C1335      H1339   1.084       .  S
C1336      O1340   1.371       .  S
O1338      H1342   0.992       .  S
O1340      H1341   0.991       .  S
O1343     Zr1355   2.440       .  S
O1343      C1345   1.287       .  A
C1345      C1425   1.471       .  S
O1346     Zr1358   2.443       .  S
O1347      C1348   1.285       .  A
C1348      O2078   1.288       .  A
C1348      C2148   1.470       .  S
O1349     Zr1358   2.439       .  S
O1349      C1351   1.287       .  A
O1350     Zr1381   2.424       .  S
C1351      C1434   1.471       .  S
O1352     Zr1355   2.443       .  S
O1353     Zr1382   2.419       .  S
O1353      C1354   1.285       .  A
C1354      O2084   1.288       .  A
C1354      C2139   1.470       .  S
Zr1355     O1356   2.433       .  S
Zr1355     O1357   2.436       .  S
O1356      H1399   0.990       .  S
O1357      H1398   0.990       .  S
O1357      H1402   0.990       .  S
Zr1358     O1359   2.434       .  S
Zr1358     O1360   2.435       .  S
Zr1358     O1362   2.374   1_556  S
Zr1358     O1361   2.376   1_556  S
O1359      H1400   0.990       .  S
O1359      H1403   0.990       .  S
O1360      H1393   0.990       .  S
O1362      H1389   0.966       .  S
O1363     Zr1375   2.450       .  S
O1363      C1365   1.289       .  A
O1364     Zr1382   2.412       .  S
O1366     Zr1378   2.445       .  S
O1366      C2100   1.288       .  A
O1367     Zr1381   2.423       .  S
O1367      C1368   1.286       .  A
C1368      C1418   1.470       .  S
O1369     Zr1378   2.450       .  S
O1369      C1371   1.289       .  A
O1372     Zr1375   2.445       .  S
O1372      C2106   1.288       .  A
O1373      C1374   1.286       .  A
C1374      C1409   1.470       .  S
Zr1375     O1376   2.435       .  S
Zr1375     O1377   2.434       .  S
Zr1375     O1383   2.374       .  S
Zr1375     O1384   2.377       .  S
Zr1375     O2119   2.370       .  S
O1376      H1396   0.990       .  S
O1376      H1401   0.990       .  S
O1377      H1397   0.990       .  S
Zr1378     O1379   2.434       .  S
Zr1378     O1380   2.435       .  S
Zr1378     O2118   2.369       .  S
O1379      H1395   0.990       .  S
O1380      H1394   0.990       .  S
O1380      H1404   0.990       .  S
Zr1381     O1386   2.382       .  S
Zr1382     O1972   2.379       .  S
Zr1382     O1385   2.377       .  S
O1383      H1391   0.966       .  S
O1384     Zr1991   2.382       .  S
O1385     Zr2087   2.368       .  S
O1386      H1390   0.966       .  S
O1387      H1392   0.966       .  S
O1388     Zr2090   2.369       .  S
C1405      C1453   1.475       .  S
C1405      C1406   1.402       .  A
C1405      C1410   1.402       .  A
C1406      C1407   1.403       .  A
C1406      H1411   1.084       .  S
C1407      C1408   1.404       .  A
C1408      C1409   1.402       .  A
C1408      H1412   1.084       .  S
C1409      C1410   1.403       .  A
C1410      H1413   1.084       .  S
C1414      C1456   1.474       .  S
C1414      C1415   1.402       .  A
C1414      C1419   1.402       .  A
C1415      C1416   1.403       .  A
C1415      H1420   1.084       .  S
C1416      C1417   1.403       .  A
C1417      C1418   1.403       .  A
C1417      H1421   1.084       .  S
C1418      C1419   1.403       .  A
C1419      H1422   1.084       .  S
C1423      C1441   1.484       .  S
C1423      C1424   1.405       .  A
C1423      C1428   1.406       .  A
C1424      C1425   1.402       .  A
C1424      H1429   1.084       .  S
C1425      C1426   1.401       .  A
C1426      C1427   1.403       .  A
C1426      H1430   1.084       .  S
C1427      C1428   1.402       .  A
C1428      H1431   1.083       .  S
C1432      C1444   1.484       .  S
C1432      C1433   1.405       .  A
C1432      C1437   1.406       .  A
C1433      C1434   1.402       .  A
C1433      H1438   1.083       .  S
C1434      C1435   1.401       .  A
C1435      C1436   1.403       .  A
C1435      H1439   1.084       .  S
C1436      C1437   1.402       .  A
C1437      H1440   1.084       .  S
C1441      C1442   1.403   1_565  A
C1441      C1446   1.409       .  A
C1442      C1443   1.398       .  A
C1442      H1447   1.082       .  S
C1443      C1444   1.410   1_545  A
C1443      O1448   1.373       .  S
C1444      C1445   1.405       .  A
C1445      C1446   1.402       .  A
C1445      H1449   1.083       .  S
C1446      O1450   1.372       .  S
O1450      H1451   0.992       .  S
C1453      C1458   1.407       .  A
C1454      C2185   1.401       .  A
C1454      C1455   1.399       .  A
C1454      H1459   1.082       .  S
C1455      C2188   1.406       .  A
C1455      O1460   1.371       .  S
C1456      C1457   1.403       .  A
C1457      C1458   1.401       .  A
C1457      H1461   1.084       .  S
C1458      O1462   1.371       .  S
O1460      H1464   0.992       .  S
O1462      H1463   0.991       .  S
O1465     Zr1477   2.440       .  S
O1465      C1467   1.287       .  A
O1466     Zr1625   2.424   1_554  S
O1466      C1955   1.286   1_545  A
C1467      O1710   1.286       .  A
C1467      C1547   1.471       .  S
O1468     Zr1480   2.443       .  S
O1469     Zr1626   2.419       .  S
O1469      C1470   1.285   1_655  A
O1471     Zr1480   2.439       .  S
O1471      C1473   1.287       .  A
O1472     Zr1503   2.424       .  S
O1472      C1961   1.287   1_545  A
C1473      O1716   1.287       .  A
C1473      C1556   1.471       .  S
O1474     Zr1477   2.443       .  S
O1475     Zr1504   2.419   1_554  S
O1475      C1476   1.285   1_655  A
Zr1477     O1478   2.433       .  S
Zr1477     O1479   2.436       .  S
Zr1477     O1605   2.376       .  S
Zr1477     O1606   2.373       .  S
Zr1477     O1753   2.368       .  S
O1478      H1521   0.990       .  S
O1479      H1520   0.990       .  S
O1479      H1524   0.990       .  S
Zr1480     O1481   2.434       .  S
Zr1480     O1482   2.435       .  S
Zr1480     O1484   2.374       .  S
Zr1480     O1483   2.376       .  S
Zr1480     O1752   2.368       .  S
O1481      H1522   0.990       .  S
O1481      H1525   0.990       .  S
O1482      H1515   0.990       .  S
O1483     Zr1599   2.376       .  S
O1483     Zr1747   2.380       .  S
O1484     Zr1599   2.373       .  S
O1484      H1511   0.966       .  S
O1485     Zr1497   2.450       .  S
O1485      C1487   1.289   1_545  A
O1486     Zr1504   2.412   1_554  S
O1486      C1731   1.284       .  A
C1487      O1974   1.284       .  A
C1487      C2037   1.469       .  S
O1488     Zr1500   2.445       .  S
O1489     Zr1503   2.423       .  S
O1489      C1490   1.286       .  A
C1490      C1540   1.470       .  S
O1491     Zr1500   2.450       .  S
O1491      C1493   1.289   1_545  A
O1492     Zr1626   2.412       .  S
O1492      C1737   1.284       .  A
C1493      O1980   1.284       .  A
C1493      C2046   1.469       .  S
O1494     Zr1497   2.445       .  S
O1495     Zr1625   2.423   1_554  S
O1495      C1496   1.286       .  A
C1496      C1531   1.470       .  S
Zr1497     O1498   2.435       .  S
Zr1497     O1499   2.434       .  S
Zr1497     O1505   2.374   1_554  S
Zr1497     O1506   2.377   1_554  S
Zr1497     O1995   2.371   1_545  S
O1498      H1518   0.990       .  S
O1498      H1523   0.990       .  S
O1499      H1519   0.990       .  S
Zr1500     O1501   2.434       .  S
Zr1500     O1502   2.435       .  S
Zr1500     O1628   2.378       .  S
Zr1500     O1627   2.374       .  S
Zr1500     O1998   2.370   1_545  S
O1501      H1517   0.990       .  S
O1502      H1516   0.990       .  S
O1502      H1526   0.990       .  S
Zr1503     O1588   2.424       .  S
Zr1503     O1617   2.423       .  S
Zr1503     O1971   2.380   1_545  S
Zr1503     O1508   2.382       .  S
Zr1503     O1631   2.383       .  S
Zr1504     O1591   2.419       .  S
Zr1504     O1614   2.412       .  S
Zr1504     O1749   2.383       .  S
Zr1504     O1507   2.377   1_556  S
Zr1504     O1632   2.377       .  S
O1505     Zr1622   2.374       .  S
O1505     Zr1992   2.383   1_545  S
O1505      H1513   0.966       .  S
O1506     Zr1622   2.378       .  S
O1507     Zr1741   2.371       .  S
O1508     Zr1968   2.368   1_545  S
O1508      H1512   0.966       .  S
O1509     Zr1965   2.368   1_545  S
O1509     Zr1625   2.383   1_554  S
O1509      H1514   0.966       .  S
O1510     Zr1744   2.370       .  S
O1510     Zr1626   2.377       .  S
C1527      C1575   1.475       .  S
C1527      C1528   1.402       .  A
C1527      C1532   1.402       .  A
C1528      C1529   1.403       .  A
C1528      H1533   1.084       .  S
C1529      C1530   1.404       .  A
C1530      C1531   1.402       .  A
C1530      H1534   1.084       .  S
C1531      C1532   1.403       .  A
C1532      H1535   1.084       .  S
C1536      C1578   1.474       .  S
C1536      C1537   1.402       .  A
C1536      C1541   1.402       .  A
C1537      C1538   1.403       .  A
C1537      H1542   1.084       .  S
C1538      C1539   1.403       .  A
C1539      C1540   1.403       .  A
C1539      H1543   1.084       .  S
C1540      C1541   1.403       .  A
C1541      H1544   1.084       .  S
C1545      C1563   1.484       .  S
C1545      C1546   1.405       .  A
C1545      C1550   1.406       .  A
C1546      C1547   1.402       .  A
C1546      H1551   1.084       .  S
C1547      C1548   1.401       .  A
C1548      C1549   1.403       .  A
C1548      H1552   1.084       .  S
C1549      C1731   1.469       .  S
C1549      C1550   1.402       .  A
C1550      H1553   1.083       .  S
C1554      C1566   1.484       .  S
C1554      C1555   1.405       .  A
C1554      C1559   1.406       .  A
C1555      C1556   1.402       .  A
C1555      H1560   1.083       .  S
C1556      C1557   1.401       .  A
C1557      C1558   1.403       .  A
C1557      H1561   1.084       .  S
C1558      C1737   1.469       .  S
C1558      C1559   1.402       .  A
C1559      H1562   1.084       .  S
C1563      C1564   1.403       .  A
C1563      C1568   1.409       .  A
C1564      C1565   1.398       .  A
C1564      H1569   1.082       .  S
C1565      C1566   1.410       .  A
C1565      O1570   1.373       .  S
C1566      C1567   1.405       .  A
C1567      C1568   1.402       .  A
C1567      H1571   1.083       .  S
C1568      O1572   1.372       .  S
O1570      H1818   0.992       .  S
O1572      H1573   0.992       .  S
H1574      O2058   0.992       .  S
C1575      C1580   1.407       .  A
C1576      C1577   1.399       .  A
C1576      H1581   1.082       .  S
C1577      O1582   1.371       .  S
C1578      C1579   1.403       .  A
C1579      C1580   1.401       .  A
C1579      H1583   1.084       .  S
C1580      O1584   1.371       .  S
O1582      H1586   0.992       .  S
O1584      H1585   0.991       .  S
O1587     Zr1599   2.440       .  S
O1587      C1589   1.287       .  A
O1588      C2077   1.286   1_545  A
C1589      O1832   1.286       .  A
C1589      C1669   1.471       .  S
O1590     Zr1602   2.443       .  S
O1591      C1592   1.285   1_655  A
O1593     Zr1602   2.439       .  S
O1593      C1595   1.287       .  A
O1594     Zr1625   2.424       .  S
O1594      C2083   1.287   1_545  A
C1595      O1838   1.287       .  A
C1595      C1678   1.471       .  S
O1596     Zr1599   2.443       .  S
O1597     Zr1626   2.419       .  S
O1597      C1598   1.285   1_655  A
Zr1599     O1600   2.433       .  S
Zr1599     O1601   2.436       .  S
Zr1599     O1875   2.368       .  S
O1600      H1643   0.990       .  S
O1601      H1642   0.990       .  S
O1601      H1646   0.990       .  S
Zr1602     O1603   2.434       .  S
Zr1602     O1604   2.435       .  S
Zr1602     O1606   2.374   1_556  S
Zr1602     O1605   2.376   1_556  S
Zr1602     O1874   2.368       .  S
O1603      H1644   0.990       .  S
O1603      H1647   0.990       .  S
O1604      H1637   0.990       .  S
O1605     Zr1869   2.380   1_554  S
O1606      H1633   0.966       .  S
O1607     Zr1619   2.450       .  S
O1607      C1609   1.289   1_545  A
O1608     Zr1626   2.412       .  S
O1608      C1853   1.284       .  A
C1609      O2096   1.284       .  A
C1609      C2159   1.469       .  S
O1610     Zr1622   2.445       .  S
O1611     Zr1625   2.423       .  S
O1611      C1612   1.286       .  A
C1612      C1662   1.470       .  S
O1613     Zr1622   2.450       .  S
O1613      C1615   1.289   1_545  A
O1614      C1859   1.284       .  A
C1615      O2102   1.284       .  A
C1615      C2168   1.469       .  S
O1616     Zr1619   2.445       .  S
O1617      C1618   1.286       .  A
C1618      C1653   1.470       .  S
Zr1619     O1620   2.435       .  S
Zr1619     O1621   2.434       .  S
Zr1619     O1627   2.374       .  S
Zr1619     O1628   2.377       .  S
Zr1619     O2117   2.371   1_545  S
O1620      H1640   0.990       .  S
O1620      H1645   0.990       .  S
O1621      H1641   0.990       .  S
Zr1622     O1623   2.434       .  S
Zr1622     O1624   2.435       .  S
Zr1622     O2120   2.370   1_545  S
O1623      H1639   0.990       .  S
O1624      H1638   0.990       .  S
O1624      H1648   0.990       .  S
Zr1625     O2093   2.380   1_546  S
Zr1625     O1630   2.382       .  S
Zr1626     O1871   2.383       .  S
Zr1626     O1629   2.377       .  S
O1627     Zr2114   2.383   1_545  S
O1627      H1635   0.966       .  S
O1629     Zr1863   2.371       .  S
O1630     Zr2090   2.368   1_545  S
O1630      H1634   0.966       .  S
O1631     Zr2087   2.368   1_545  S
O1631      H1636   0.966       .  S
O1632     Zr1866   2.370       .  S
C1649      C1697   1.475       .  S
C1649      C1650   1.402       .  A
C1649      C1654   1.402       .  A
C1650      C1651   1.403       .  A
C1650      H1655   1.084       .  S
C1651      C1652   1.404       .  A
C1652      C1653   1.402       .  A
C1652      H1656   1.084       .  S
C1653      C1654   1.403       .  A
C1654      H1657   1.084       .  S
C1658      C1700   1.474       .  S
C1658      C1659   1.402       .  A
C1658      C1663   1.402       .  A
C1659      C1660   1.403       .  A
C1659      H1664   1.084       .  S
C1660      C1661   1.403       .  A
C1661      C1662   1.403       .  A
C1661      H1665   1.084       .  S
C1662      C1663   1.403       .  A
C1663      H1666   1.084       .  S
C1667      C1685   1.484       .  S
C1667      C1668   1.405       .  A
C1667      C1672   1.406       .  A
C1668      C1669   1.402       .  A
C1668      H1673   1.084       .  S
C1669      C1670   1.401       .  A
C1670      C1671   1.403       .  A
C1670      H1674   1.084       .  S
C1671      C1853   1.469       .  S
C1671      C1672   1.402       .  A
C1672      H1675   1.083       .  S
C1676      C1688   1.484       .  S
C1676      C1677   1.405       .  A
C1676      C1681   1.406       .  A
C1677      C1678   1.402       .  A
C1677      H1682   1.083       .  S
C1678      C1679   1.401       .  A
C1679      C1680   1.403       .  A
C1679      H1683   1.084       .  S
C1680      C1859   1.469       .  S
C1680      C1681   1.402       .  A
C1681      H1684   1.084       .  S
C1685      C1686   1.403       .  A
C1685      C1690   1.409       .  A
C1686      C1687   1.398       .  A
C1686      H1691   1.082       .  S
C1687      C1688   1.410       .  A
C1687      O1692   1.373       .  S
C1688      C1689   1.405       .  A
C1689      C1690   1.402       .  A
C1689      H1693   1.083       .  S
C1690      O1694   1.372       .  S
O1692      H1940   0.992       .  S
O1694      H1695   0.992       .  S
H1696      O2180   0.992       .  S
C1697      C1702   1.407       .  A
C1698      C1699   1.399       .  A
C1698      H1703   1.082       .  S
C1699      O1704   1.371       .  S
C1700      C1701   1.403       .  A
C1701      C1702   1.401       .  A
C1701      H1705   1.084       .  S
C1702      O1706   1.371       .  S
O1704      H1708   0.992       .  S
O1706      H1707   0.991       .  S
O1709     Zr1721   2.440       .  S
O1709      C1711   1.287       .  A
O1710     Zr1869   2.424   1_554  S
C1711      O1954   1.286       .  A
C1711      C1791   1.471       .  S
O1712     Zr1724   2.443       .  S
O1713     Zr1870   2.419       .  S
O1713      C1714   1.285   1_655  A
O1715     Zr1724   2.439       .  S
O1715      C1717   1.287       .  A
O1716     Zr1747   2.424       .  S
C1717      O1960   1.287       .  A
C1717      C1800   1.471       .  S
O1718     Zr1721   2.443       .  S
O1719     Zr1748   2.419   1_554  S
O1719      C1720   1.285   1_655  A
Zr1721     O1722   2.433       .  S
Zr1721     O1723   2.436       .  S
Zr1721     O1849   2.376       .  S
Zr1721     O1850   2.373       .  S
Zr1721     O1997   2.368       .  S
O1722      H1765   0.990       .  S
O1723      H1764   0.990       .  S
O1723      H1768   0.990       .  S
Zr1724     O1725   2.434       .  S
Zr1724     O1726   2.435       .  S
Zr1724     O1728   2.374       .  S
Zr1724     O1727   2.376       .  S
Zr1724     O1996   2.368       .  S
O1725      H1766   0.990       .  S
O1725      H1769   0.990       .  S
O1726      H1759   0.990       .  S
O1727     Zr1843   2.376       .  S
O1727     Zr1991   2.380       .  S
O1728     Zr1843   2.373       .  S
O1728      H1755   0.966       .  S
O1729     Zr1741   2.450       .  S
O1729      C1731   1.289       .  A
O1730     Zr1748   2.412   1_554  S
O1730      C1975   1.284       .  A
O1732     Zr1744   2.445       .  S
O1733     Zr1747   2.423       .  S
O1733      C1734   1.286       .  A
C1734      C1784   1.470       .  S
O1735     Zr1744   2.450       .  S
O1735      C1737   1.289       .  A
O1736     Zr1870   2.412       .  S
O1736      C1981   1.284       .  A
O1738     Zr1741   2.445       .  S
O1739     Zr1869   2.423   1_554  S
O1739      C1740   1.286       .  A
C1740      C1775   1.470       .  S
Zr1741     O1742   2.435       .  S
Zr1741     O1743   2.434       .  S
Zr1741     O1749   2.374   1_554  S
Zr1741     O1750   2.377   1_554  S
O1742      H1762   0.990       .  S
O1742      H1767   0.990       .  S
O1743      H1763   0.990       .  S
Zr1744     O1745   2.434       .  S
Zr1744     O1746   2.435       .  S
Zr1744     O1872   2.378       .  S
Zr1744     O1871   2.374       .  S
O1745      H1761   0.990       .  S
O1746      H1760   0.990       .  S
O1746      H1770   0.990       .  S
Zr1747     O1832   2.424       .  S
Zr1747     O1861   2.423       .  S
Zr1747     O1752   2.382       .  S
Zr1747     O1875   2.383       .  S
Zr1748     O1835   2.419       .  S
Zr1748     O1858   2.412       .  S
Zr1748     O1993   2.383       .  S
Zr1748     O1751   2.377   1_556  S
Zr1748     O1876   2.377       .  S
O1749     Zr1866   2.374       .  S
O1749      H1757   0.966       .  S
O1750     Zr1866   2.378       .  S
O1751     Zr1985   2.371       .  S
O1752      H1756   0.966       .  S
O1753     Zr1869   2.383   1_554  S
O1753      H1758   0.966       .  S
O1754     Zr1988   2.370       .  S
O1754     Zr1870   2.377       .  S
C1771      C1819   1.475       .  S
C1771      C1772   1.402       .  A
C1771      C1776   1.402       .  A
C1772      C1773   1.403       .  A
C1772      H1777   1.084       .  S
C1773      C1774   1.404       .  A
C1774      C1775   1.402       .  A
C1774      H1778   1.084       .  S
C1775      C1776   1.403       .  A
C1776      H1779   1.084       .  S
C1780      C1822   1.474       .  S
C1780      C1781   1.402       .  A
C1780      C1785   1.402       .  A
C1781      C1782   1.403       .  A
C1781      H1786   1.084       .  S
C1782      C1783   1.403       .  A
C1783      C1784   1.403       .  A
C1783      H1787   1.084       .  S
C1784      C1785   1.403       .  A
C1785      H1788   1.084       .  S
C1789      C1807   1.484       .  S
C1789      C1790   1.405       .  A
C1789      C1794   1.406       .  A
C1790      C1791   1.402       .  A
C1790      H1795   1.084       .  S
C1791      C1792   1.401       .  A
C1792      C1793   1.403       .  A
C1792      H1796   1.084       .  S
C1793      C1975   1.469       .  S
C1793      C1794   1.402       .  A
C1794      H1797   1.083       .  S
C1798      C1810   1.484       .  S
C1798      C1799   1.405       .  A
C1798      C1803   1.406       .  A
C1799      C1800   1.402       .  A
C1799      H1804   1.083       .  S
C1800      C1801   1.401       .  A
C1801      C1802   1.403       .  A
C1801      H1805   1.084       .  S
C1802      C1981   1.469       .  S
C1802      C1803   1.402       .  A
C1803      H1806   1.084       .  S
C1807      C1808   1.403       .  A
C1807      C1812   1.409       .  A
C1808      C1809   1.398       .  A
C1808      H1813   1.082       .  S
C1809      C1810   1.410       .  A
C1809      O1814   1.373       .  S
C1810      C1811   1.405       .  A
C1811      C1812   1.402       .  A
C1811      H1815   1.083       .  S
C1812      O1816   1.372       .  S
O1814      H2062   0.992       .  S
O1816      H1817   0.992       .  S
C1819      C1824   1.407       .  A
C1820      C1821   1.399       .  A
C1820      H1825   1.082       .  S
C1821      O1826   1.371       .  S
C1822      C1823   1.403       .  A
C1823      C1824   1.401       .  A
C1823      H1827   1.084       .  S
C1824      O1828   1.371       .  S
O1826      H1830   0.992       .  S
O1828      H1829   0.991       .  S
O1831     Zr1843   2.440       .  S
O1831      C1833   1.287       .  A
C1833      O2076   1.286       .  A
C1833      C1913   1.471       .  S
O1834     Zr1846   2.443       .  S
O1835      C1836   1.285   1_655  A
O1837     Zr1846   2.439       .  S
O1837      C1839   1.287       .  A
O1838     Zr1869   2.424       .  S
C1839      O2082   1.287       .  A
C1839      C1922   1.471       .  S
O1840     Zr1843   2.443       .  S
O1841     Zr1870   2.419       .  S
O1841      C1842   1.285   1_655  A
Zr1843     O1844   2.433       .  S
Zr1843     O1845   2.436       .  S
Zr1843     O2119   2.368       .  S
O1844      H1887   0.990       .  S
O1845      H1886   0.990       .  S
O1845      H1890   0.990       .  S
Zr1846     O1847   2.434       .  S
Zr1846     O1848   2.435       .  S
Zr1846     O1850   2.374   1_556  S
Zr1846     O1849   2.376   1_556  S
Zr1846     O2118   2.368       .  S
O1847      H1888   0.990       .  S
O1847      H1891   0.990       .  S
O1848      H1881   0.990       .  S
O1849     Zr2113   2.380   1_554  S
O1850      H1877   0.966       .  S
O1851     Zr1863   2.450       .  S
O1851      C1853   1.289       .  A
O1852     Zr1870   2.412       .  S
O1852      C2097   1.284       .  A
O1854     Zr1866   2.445       .  S
O1855     Zr1869   2.423       .  S
O1855      C1856   1.286       .  A
C1856      C1906   1.470       .  S
O1857     Zr1866   2.450       .  S
O1857      C1859   1.289       .  A
O1858      C2103   1.284       .  A
O1860     Zr1863   2.445       .  S
O1861      C1862   1.286       .  A
C1862      C1897   1.470       .  S
Zr1863     O1864   2.435       .  S
Zr1863     O1865   2.434       .  S
Zr1863     O1871   2.374       .  S
Zr1863     O1872   2.377       .  S
O1864      H1884   0.990       .  S
O1864      H1889   0.990       .  S
O1865      H1885   0.990       .  S
Zr1866     O1867   2.434       .  S
Zr1866     O1868   2.435       .  S
O1867      H1883   0.990       .  S
O1868      H1882   0.990       .  S
O1868      H1892   0.990       .  S
Zr1869     O1874   2.382       .  S
Zr1870     O2115   2.383       .  S
Zr1870     O1873   2.377       .  S
O1871      H1879   0.966       .  S
O1873     Zr2107   2.371       .  S
O1874      H1878   0.966       .  S
O1875      H1880   0.966       .  S
O1876     Zr2110   2.370       .  S
C1893      C1941   1.475       .  S
C1893      C1894   1.402       .  A
C1893      C1898   1.402       .  A
C1894      C1895   1.403       .  A
C1894      H1899   1.084       .  S
C1895      C1896   1.404       .  A
C1896      C1897   1.402       .  A
C1896      H1900   1.084       .  S
C1897      C1898   1.403       .  A
C1898      H1901   1.084       .  S
C1902      C1944   1.474       .  S
C1902      C1903   1.402       .  A
C1902      C1907   1.402       .  A
C1903      C1904   1.403       .  A
C1903      H1908   1.084       .  S
C1904      C1905   1.403       .  A
C1905      C1906   1.403       .  A
C1905      H1909   1.084       .  S
C1906      C1907   1.403       .  A
C1907      H1910   1.084       .  S
C1911      C1929   1.484       .  S
C1911      C1912   1.405       .  A
C1911      C1916   1.406       .  A
C1912      C1913   1.402       .  A
C1912      H1917   1.084       .  S
C1913      C1914   1.401       .  A
C1914      C1915   1.403       .  A
C1914      H1918   1.084       .  S
C1915      C2097   1.469       .  S
C1915      C1916   1.402       .  A
C1916      H1919   1.083       .  S
C1920      C1932   1.484       .  S
C1920      C1921   1.405       .  A
C1920      C1925   1.406       .  A
C1921      C1922   1.402       .  A
C1921      H1926   1.083       .  S
C1922      C1923   1.401       .  A
C1923      C1924   1.403       .  A
C1923      H1927   1.084       .  S
C1924      C2103   1.469       .  S
C1924      C1925   1.402       .  A
C1925      H1928   1.084       .  S
C1929      C1930   1.403       .  A
C1929      C1934   1.409       .  A
C1930      C1931   1.398       .  A
C1930      H1935   1.082       .  S
C1931      C1932   1.410       .  A
C1931      O1936   1.373       .  S
C1932      C1933   1.405       .  A
C1933      C1934   1.402       .  A
C1933      H1937   1.083       .  S
C1934      O1938   1.372       .  S
O1936      H2184   0.992       .  S
O1938      H1939   0.992       .  S
C1941      C1946   1.407       .  A
C1942      C1943   1.399       .  A
C1942      H1947   1.082       .  S
C1943      O1948   1.371       .  S
C1944      C1945   1.403       .  A
C1945      C1946   1.401       .  A
C1945      H1949   1.084       .  S
C1946      O1950   1.371       .  S
O1948      H1952   0.992       .  S
O1950      H1951   0.991       .  S
O1953     Zr1965   2.440       .  S
O1953      C1955   1.287       .  A
O1954     Zr2113   2.424   1_554  S
C1955      C2035   1.471       .  S
O1956     Zr1968   2.443       .  S
O1957     Zr2114   2.419       .  S
O1957      C1958   1.285   1_655  A
O1959     Zr1968   2.439       .  S
O1959      C1961   1.287       .  A
O1960     Zr1991   2.424       .  S
C1961      C2044   1.471       .  S
O1962     Zr1965   2.443       .  S
O1963     Zr1992   2.419   1_554  S
O1963      C1964   1.285   1_655  A
Zr1965     O1966   2.433       .  S
Zr1965     O1967   2.436       .  S
Zr1965     O2093   2.376       .  S
Zr1965     O2094   2.373       .  S
O1966      H2009   0.990       .  S
O1967      H2008   0.990       .  S
O1967      H2012   0.990       .  S
Zr1968     O1969   2.434       .  S
Zr1968     O1970   2.435       .  S
Zr1968     O1972   2.374       .  S
Zr1968     O1971   2.376       .  S
O1969      H2010   0.990       .  S
O1969      H2013   0.990       .  S
O1970      H2003   0.990       .  S
O1971     Zr2087   2.376       .  S
O1972     Zr2087   2.373       .  S
O1972      H1999   0.966       .  S
O1973     Zr1985   2.450       .  S
O1973      C1975   1.289       .  A
O1974     Zr1992   2.412   1_554  S
O1976     Zr1988   2.445       .  S
O1977     Zr1991   2.423       .  S
O1977      C1978   1.286       .  A
C1978      C2028   1.470       .  S
O1979     Zr1988   2.450       .  S
O1979      C1981   1.289       .  A
O1980     Zr2114   2.412       .  S
O1982     Zr1985   2.445       .  S
O1983     Zr2113   2.423   1_554  S
O1983      C1984   1.286       .  A
C1984      C2019   1.470       .  S
Zr1985     O1986   2.435       .  S
Zr1985     O1987   2.434       .  S
Zr1985     O1993   2.374   1_554  S
Zr1985     O1994   2.377   1_554  S
O1986      H2006   0.990       .  S
O1986      H2011   0.990       .  S
O1987      H2007   0.990       .  S
Zr1988     O1989   2.434       .  S
Zr1988     O1990   2.435       .  S
Zr1988     O2116   2.378       .  S
Zr1988     O2115   2.374       .  S
O1989      H2005   0.990       .  S
O1990      H2004   0.990       .  S
O1990      H2014   0.990       .  S
Zr1991     O2076   2.424       .  S
Zr1991     O2105   2.423       .  S
Zr1991     O1996   2.382       .  S
Zr1991     O2119   2.383       .  S
Zr1992     O2079   2.419       .  S
Zr1992     O2102   2.412       .  S
Zr1992     O1995   2.377   1_556  S
Zr1992     O2120   2.377       .  S
O1993     Zr2110   2.374       .  S
O1993      H2001   0.966       .  S
O1994     Zr2110   2.378       .  S
O1996      H2000   0.966       .  S
O1997     Zr2113   2.383   1_554  S
O1997      H2002   0.966       .  S
O1998     Zr2114   2.377       .  S
C2015      C2063   1.475       .  S
C2015      C2016   1.402       .  A
C2015      C2020   1.402       .  A
C2016      C2017   1.403       .  A
C2016      H2021   1.084       .  S
C2017      C2018   1.404       .  A
C2018      C2019   1.402       .  A
C2018      H2022   1.084       .  S
C2019      C2020   1.403       .  A
C2020      H2023   1.084       .  S
C2024      C2066   1.474       .  S
C2024      C2025   1.402       .  A
C2024      C2029   1.402       .  A
C2025      C2026   1.403       .  A
C2025      H2030   1.084       .  S
C2026      C2027   1.403       .  A
C2027      C2028   1.403       .  A
C2027      H2031   1.084       .  S
C2028      C2029   1.403       .  A
C2029      H2032   1.084       .  S
C2033      C2051   1.484       .  S
C2033      C2034   1.405       .  A
C2033      C2038   1.406       .  A
C2034      C2035   1.402       .  A
C2034      H2039   1.084       .  S
C2035      C2036   1.401       .  A
C2036      C2037   1.403       .  A
C2036      H2040   1.084       .  S
C2037      C2038   1.402       .  A
C2038      H2041   1.083       .  S
C2042      C2054   1.484       .  S
C2042      C2043   1.405       .  A
C2042      C2047   1.406       .  A
C2043      C2044   1.402       .  A
C2043      H2048   1.083       .  S
C2044      C2045   1.401       .  A
C2045      C2046   1.403       .  A
C2045      H2049   1.084       .  S
C2046      C2047   1.402       .  A
C2047      H2050   1.084       .  S
C2051      C2052   1.403   1_565  A
C2051      C2056   1.409       .  A
C2052      C2053   1.398       .  A
C2052      H2057   1.082       .  S
C2053      C2054   1.410   1_545  A
C2053      O2058   1.373       .  S
C2054      C2055   1.405       .  A
C2055      C2056   1.402       .  A
C2055      H2059   1.083       .  S
C2056      O2060   1.372       .  S
O2060      H2061   0.992       .  S
C2063      C2068   1.407       .  A
C2064      C2065   1.399       .  A
C2064      H2069   1.082       .  S
C2065      O2070   1.371       .  S
C2066      C2067   1.403       .  A
C2067      C2068   1.401       .  A
C2067      H2071   1.084       .  S
C2068      O2072   1.371       .  S
O2070      H2074   0.992       .  S
O2072      H2073   0.991       .  S
O2075     Zr2087   2.440       .  S
O2075      C2077   1.287       .  A
C2077      C2157   1.471       .  S
O2078     Zr2090   2.443       .  S
O2079      C2080   1.285   1_655  A
O2081     Zr2090   2.439       .  S
O2081      C2083   1.287       .  A
O2082     Zr2113   2.424       .  S
C2083      C2166   1.471       .  S
O2084     Zr2087   2.443       .  S
O2085     Zr2114   2.419       .  S
O2085      C2086   1.285   1_655  A
Zr2087     O2088   2.433       .  S
Zr2087     O2089   2.436       .  S
O2088      H2131   0.990       .  S
O2089      H2130   0.990       .  S
O2089      H2134   0.990       .  S
Zr2090     O2091   2.434       .  S
Zr2090     O2092   2.435       .  S
Zr2090     O2094   2.374   1_556  S
Zr2090     O2093   2.376   1_556  S
O2091      H2132   0.990       .  S
O2091      H2135   0.990       .  S
O2092      H2125   0.990       .  S
O2094      H2121   0.966       .  S
O2095     Zr2107   2.450       .  S
O2095      C2097   1.289       .  A
O2096     Zr2114   2.412       .  S
O2098     Zr2110   2.445       .  S
O2099     Zr2113   2.423       .  S
O2099      C2100   1.286       .  A
C2100      C2150   1.470       .  S
O2101     Zr2110   2.450       .  S
O2101      C2103   1.289       .  A
O2104     Zr2107   2.445       .  S
O2105      C2106   1.286       .  A
C2106      C2141   1.470       .  S
Zr2107     O2108   2.435       .  S
Zr2107     O2109   2.434       .  S
Zr2107     O2115   2.374       .  S
Zr2107     O2116   2.377       .  S
O2108      H2128   0.990       .  S
O2108      H2133   0.990       .  S
O2109      H2129   0.990       .  S
Zr2110     O2111   2.434       .  S
Zr2110     O2112   2.435       .  S
O2111      H2127   0.990       .  S
O2112      H2126   0.990       .  S
O2112      H2136   0.990       .  S
Zr2113     O2118   2.382       .  S
Zr2114     O2117   2.377       .  S
O2115      H2123   0.966       .  S
O2118      H2122   0.966       .  S
O2119      H2124   0.966       .  S
C2137      C2185   1.475       .  S
C2137      C2138   1.402       .  A
C2137      C2142   1.402       .  A
C2138      C2139   1.403       .  A
C2138      H2143   1.084       .  S
C2139      C2140   1.404       .  A
C2140      C2141   1.402       .  A
C2140      H2144   1.084       .  S
C2141      C2142   1.403       .  A
C2142      H2145   1.084       .  S
C2146      C2188   1.474       .  S
C2146      C2147   1.402       .  A
C2146      C2151   1.402       .  A
C2147      C2148   1.403       .  A
C2147      H2152   1.084       .  S
C2148      C2149   1.403       .  A
C2149      C2150   1.403       .  A
C2149      H2153   1.084       .  S
C2150      C2151   1.403       .  A
C2151      H2154   1.084       .  S
C2155      C2173   1.484       .  S
C2155      C2156   1.405       .  A
C2155      C2160   1.406       .  A
C2156      C2157   1.402       .  A
C2156      H2161   1.084       .  S
C2157      C2158   1.401       .  A
C2158      C2159   1.403       .  A
C2158      H2162   1.084       .  S
C2159      C2160   1.402       .  A
C2160      H2163   1.083       .  S
C2164      C2176   1.484       .  S
C2164      C2165   1.405       .  A
C2164      C2169   1.406       .  A
C2165      C2166   1.402       .  A
C2165      H2170   1.083       .  S
C2166      C2167   1.401       .  A
C2167      C2168   1.403       .  A
C2167      H2171   1.084       .  S
C2168      C2169   1.402       .  A
C2169      H2172   1.084       .  S
C2173      C2174   1.403   1_565  A
C2173      C2178   1.409       .  A
C2174      C2175   1.398       .  A
C2174      H2179   1.082       .  S
C2175      C2176   1.410   1_545  A
C2175      O2180   1.373       .  S
C2176      C2177   1.405       .  A
C2177      C2178   1.402       .  A
C2177      H2181   1.083       .  S
C2178      O2182   1.372       .  S
O2182      H2183   0.992       .  S
C2185      C2190   1.407       .  A
C2186      C2187   1.399       .  A
C2186      H2191   1.082       .  S
C2187      O2192   1.371       .  S
C2188      C2189   1.403       .  A
C2189      C2190   1.401       .  A
C2189      H2193   1.084       .  S
C2190      O2194   1.371       .  S
O2192      H2196   0.992       .  S
O2194      H2195   0.991       .  S
