geometry optimzed in LAMMPS
_audit_creation_date              2020-11-30 
_audit_creation_method            'lammps2cif' 
_symmetry_space_group_name_H-M    'P1' 
_symmetry_Int_Tables_number       1 
_symmetry_cell_setting            triclinic 
loop_ 
_symmetry_equiv_pos_as_xyz 
  x,y,z 
_cell_length_a                    42.033459296764136 
_cell_length_b                    42.03943560281262 
_cell_length_c                    31.838503864037683 
_cell_angle_alpha                 90.13886061323042 
_cell_angle_beta                  90.4961667047041 
_cell_angle_gamma                 68.42427538732397 
loop_ 
_atom_site_label 
_atom_site_type_symbol 
_atom_site_fract_x 
_atom_site_fract_y 
_atom_site_fract_z 
_atom_site_charge 
O1          O  0.09247076  0.46731414  0.08176077    -0.74790
O2          O  0.09021547  0.01345608  0.04321743    -0.53700
C3          C  0.10422674  0.49043017  0.07121425     0.78930
O4          O  0.02074054  0.40453287  0.41785139    -0.59400
O5          O  0.47541760  0.40634988  0.45782032    -0.52430
C6          C  0.49729425  0.39322935  0.42861318     0.70950
O7          O  0.09001738  0.46573138  0.41711296    -0.73950
O8          O  0.08739979  0.01393983  0.45204112    -0.54520
C9          C  0.10117225  0.48987570  0.42519797     0.76950
O10         O  0.02778680  0.40302675  0.08383075    -0.59100
O11         O  0.47942665  0.40570886  0.04852319    -0.52220
C12         C  0.50389946  0.39174206  0.07507003     0.73540
Zr13       Zr  0.04486976  0.44999496  0.06289123     2.54710
O14         O  0.09629672  0.39847288  0.06209410    -0.79660
O15         O  0.04359256  0.45202496  0.13933060    -0.93080
Zr16       Zr  0.04217741  0.44930156  0.43800098     2.64680
O17         O  0.09271693  0.39685001  0.43784281    -0.98040
O18         O  0.03839666  0.45073597  0.36166013    -0.80100
O19         O  0.06325305  0.46707169  0.99954703    -0.83450
O20         O  0.02537659  0.43072317  0.00134782    -2.18160
O21         O  0.41522644  0.01736949  0.08678015    -0.66840
O22         O  0.41631592  0.47000177  0.05058548    -0.51410
C23         C  0.40363273  0.99371995  0.07806469     0.71930
O24         O  0.47786425  0.08067747  0.41782084    -0.59750
O25         O  0.02694535  0.07632958  0.45249221    -0.51730
C26         C  0.00288126  0.09066796  0.42569012     0.73730
O27         O  0.41339708  0.01505524  0.41733975    -0.71150
O28         O  0.41527627  0.46887326  0.45664604    -0.49820
C29         C  0.40232092  0.99141478  0.42763875     0.75110
O30         O  0.48154487  0.08038896  0.08361866    -0.66480
O31         O  0.02741967  0.07781374  0.04375466    -0.53670
C32         C  0.00506048  0.09130196  0.07233725     0.73490
Zr33       Zr  0.46152272  0.03480769  0.06361939     2.77540
O34         O  0.41091299  0.08710452  0.05978467    -0.97230
O35         O  0.46275895  0.03576214  0.14004365    -0.78050
Zr36       Zr  0.45909817  0.03439960  0.43912075     2.70070
O37         O  0.40728258  0.08535953  0.44340501    -0.79290
O38         O  0.45859460  0.03511066  0.36267865    -0.98380
Zr39       Zr  0.03948761  0.02793849  0.99923835     2.21500
Zr40       Zr  0.46448621  0.45564118  0.50306812     2.11130
O41         O  0.44070954  0.01673009  0.50216950    -2.47060
O42         O  0.47875366  0.05356106  0.50058612    -0.79090
O43         O  0.48422607  0.47396562  0.06555180    -0.71280
O44         O  0.01961482  0.00996392  0.43658798    -2.32240
O45         O  0.02213536  0.01060386  0.06346322    -2.28450
O46         O  0.48158577  0.47360254  0.43896515    -0.73040
H47         H  0.03328154  0.40605185  0.50141649     0.78950
H48         H  0.02761700  0.01799844  0.41193002     0.80040
H49         H  0.41601500  0.02505644  0.50250237     0.82270
H50         H  0.03117137  0.01880452  0.08734758     0.79870
H51         H  0.02854080  0.47535243  0.35443694     0.42910
H52         H  0.46414067  0.01098285  0.35437855     0.41880
H53         H  0.41232928  0.09944079  0.46555159     0.41560
H54         H  0.39369523  0.08065220  0.04422793     0.39490
H55         H  0.48531725  0.01843999  0.14781657     0.42620
H56         H  0.04782502  0.47301282  0.14679207     0.37410
H57         H  0.10466668  0.39699882  0.03291216     0.43520
H58         H  0.08610672  0.38020062  0.45403805     0.39940
H59         H  0.40234873  0.09099841  0.08895015     0.44860
H60         H  0.06470862  0.43304599  0.14821985     0.43580
H61         H  0.09443124  0.38861046  0.40847738     0.43720
H62         H  0.43425285  0.04684488  0.35465936     0.44070
C63         C  0.01350596  0.26692029  0.15942258     0.03630
C64         C  0.01189290  0.23870112  0.13756991    -0.12520
C65         C  0.00484586  0.21283706  0.15878252     0.01130
C66         C  0.00043119  0.21556321  0.20266856    -0.11050
C67         C  0.00588134  0.24179255  0.22601435     0.03620
C68         C  0.01204052  0.26774528  0.20335388    -0.10470
H69         H  0.01563723  0.23746923  0.10393738     0.09210
H70         H  0.99236775  0.19707638  0.21829957     0.06740
H71         H  0.01540909  0.28910168  0.21899933     0.06590
C72         C  0.99886898  0.27174483  0.34080889     0.03630
C73         C  0.99940335  0.24246409  0.36199887    -0.12520
C74         C  0.00487173  0.21202385  0.33988730     0.01130
C75         C  0.00852279  0.21189222  0.29596184    -0.11050
C76         C  0.00453182  0.24205816  0.27338913     0.03620
C77         C  0.99999621  0.27195327  0.29682309    -0.10470
H78         H  0.99654554  0.24326848  0.39580456     0.09210
H79         H  0.01500312  0.18774342  0.27980190     0.06740
H80         H  0.99734256  0.29575534  0.28171498     0.06590
C81         C  0.28038850  0.49733734  0.16089584     0.03630
C82         C  0.25558411  0.48897054  0.13863968    -0.12520
C83         C  0.22678014  0.48765182  0.15911992     0.01130
C84         C  0.22445968  0.49121109  0.20289713    -0.11050
C85         C  0.24947116  0.49859933  0.22655630     0.03620
C86         C  0.27610282  0.50372251  0.20421755    -0.10470
H87         H  0.25826810  0.48387127  0.10524135     0.09210
H88         H  0.20283302  0.48805741  0.21767850     0.06740
H89         H  0.29406229  0.51264643  0.21990130     0.06590
C90         C  0.28018673  0.49200513  0.34141261     0.03630
C91         C  0.25183077  0.48940170  0.36202777    -0.12520
C92         C  0.22138149  0.49420921  0.33999342     0.01130
C93         C  0.22001486  0.49945224  0.29642453    -0.11050
C94         C  0.24905268  0.49877162  0.27399448     0.03620
C95         C  0.27858148  0.49606669  0.29751638    -0.10500
H96         H  0.25321949  0.48357698  0.39519568     0.09210
H97         H  0.19587557  0.50413366  0.28070244     0.06740
H98         H  0.30098213  0.49669320  0.28211301     0.06590
C99         C  0.02130903  0.14060214  0.42106469    -0.11770
C100        C  0.00412066  0.12095122  0.40262481     0.05230
C101        C  0.48855182  0.13072353  0.36271505    -0.07060
C102        C  0.48856950  0.16079220  0.34382613    -0.07800
C103        C  0.00591592  0.18036995  0.36204605    -0.02350
C104        C  0.02331059  0.16946013  0.40083465     0.04460
N105        N  0.04439560  0.18615614  0.41918913     0.66970
H106        H  0.03407141  0.13299094  0.45115084     0.15870
H107        H  0.47550824  0.16847460  0.31393090     0.15580
N108        N  0.47473060  0.10936467  0.33957946     0.74670
O109        O  0.04593502  0.18884422  0.45859735    -0.38780
O110        O  0.06499915  0.19395100  0.39664050    -0.38720
O111        O  0.44725514  0.12263671  0.31888523    -0.39420
O112        O  0.99313829  0.07841682  0.33319611    -0.39490
C113        C  0.02735893  0.33943020  0.38957631    -0.11770
C114        C  0.99652647  0.36230219  0.40626020     0.05230
C115        C  0.46661003  0.35430844  0.40222538    -0.07060
C116        C  0.46852208  0.32399801  0.38185162    -0.07800
C117        C  0.99920013  0.30172332  0.36478399    -0.02350
C118        C  0.02930337  0.30914268  0.36912033     0.04460
N119        N  0.06197502  0.28635539  0.35362870     0.66970
H120        H  0.05051614  0.34481126  0.39342877     0.15870
H121        H  0.44553542  0.31829406  0.37789059     0.15580
N122        N  0.43383827  0.37713491  0.41650496     0.74670
O123        O  0.08578310  0.29730306  0.34742315    -0.38780
O124        O  0.06843923  0.25470436  0.34982994    -0.38720
O125        O  0.42361923  0.40844162  0.40725891    -0.39420
O126        O  0.41267383  0.36527442  0.43121712    -0.39490
C127        C  0.99288910  0.15327473  0.07377981    -0.11770
C128        C  0.00641765  0.12159801  0.09415023     0.05230
C129        C  0.01834655  0.11986365  0.13595115    -0.07060
C130        C  0.01743271  0.14998462  0.15583434    -0.07800
C131        C  0.00349404  0.18214035  0.13593785    -0.02350
C132        C  0.99018392  0.18369722  0.09446752     0.04460
N133        N  0.97214305  0.21568371  0.07370903     0.66970
H134        H  0.98265379  0.15448787  0.04219282     0.15870
H135        H  0.02849357  0.14800186  0.18701022     0.15580
N136        N  0.03149551  0.08800411  0.15868707     0.74670
O137        O  0.97515231  0.21844715  0.03459135    -0.38780
O138        O  0.44997988  0.23978260  0.09324904    -0.38720
O139        O  0.04826817  0.06040734  0.14016459    -0.39420
O140        O  0.52848445  0.08773382  0.19810431    -0.39490
C141        C  0.48004666  0.32231398  0.12751264    -0.11770
C142        C  0.01244454  0.29755155  0.13607583     0.05230
C143        C  0.04214416  0.30351403  0.12439644    -0.07060
C144        C  0.03821395  0.33474961  0.10488505    -0.07800
C145        C  0.00571041  0.35983925  0.09659094    -0.02350
C146        C  0.47618902  0.35351530  0.10836467     0.04460
N147        N  0.44236371  0.37893313  0.10346489     0.66970
H148        H  0.45747112  0.31770628  0.13730723     0.15870
H149        H  0.06081900  0.33935013  0.09530285     0.15580
N150        N  0.07613201  0.27868326  0.13196303     0.74670
O151        O  0.41727947  0.36996134  0.09627557    -0.38780
O152        O  0.43666031  0.40968315  0.11291195    -0.38720
O153        O  0.08127381  0.24735731  0.13651010    -0.39420
O154        O  0.10167214  0.28767613  0.13121068    -0.39490
C155        C  0.34412501  0.47380771  0.34653920    -0.11770
C156        C  0.31182425  0.49034271  0.36492020     0.05230
C157        C  0.31037053  0.50663055  0.40413591    -0.07060
C158        C  0.34035834  0.00574277  0.42401002    -0.07800
C159        C  0.37230071  0.49031414  0.40490675    -0.02350
C160        C  0.37435806  0.47476245  0.36489301     0.04460
N161        N  0.40623494  0.45993795  0.34234216     0.66970
H162        H  0.34578615  0.46050184  0.31703539     0.15870
H163        H  0.33873343  0.01825350  0.45418798     0.15580
N164        N  0.27835883  0.02683944  0.42257480     0.74670
O165        O  0.40777677  0.44216919  0.30983186    -0.38780
O166        O  0.43262035  0.46553645  0.35328132    -0.38720
O167        O  0.26908881  0.51559075  0.45558377    -0.39420
O168        O  0.26309307  0.05739944  0.41094858    -0.39490
C169        C  0.17453964  0.47176586  0.34708869    -0.11770
C170        C  0.19077174  0.49334793  0.36222381     0.05230
C171        C  0.17728339  0.51396287  0.39772407    -0.07060
C172        C  0.14868504  0.01155355  0.41810382    -0.07800
C173        C  0.13198326  0.49034829  0.40258640    -0.02350
C174        C  0.14498283  0.47062932  0.36605367     0.04460
N175        N  0.12764217  0.45088341  0.34622259     0.66970
H176        H  0.18441061  0.45630755  0.31943084     0.15870
H177        H  0.13893458  0.02733280  0.44551401     0.15580
N178        N  0.19063316  0.03905281  0.41205459     0.74670
O179        O  0.09770375  0.46581539  0.33201392    -0.38780
O180        O  0.14436511  0.42049421  0.33508786    -0.38720
O181        O  0.19713102  0.05828608  0.38586144    -0.39420
O182        O  0.19103208  0.04557681  0.45073563    -0.39490
C183        C  0.34155992  0.50889033  0.07954585    -0.11770
C184        C  0.37304181  0.49468241  0.10060286     0.05230
C185        C  0.37412779  0.48261057  0.14230091    -0.07060
C186        C  0.34349113  0.48345875  0.16057082    -0.07800
C187        C  0.31171374  0.49804418  0.13975022    -0.02350
C188        C  0.31080464  0.51189761  0.09909615     0.04460
N189        N  0.27903551  0.53049576  0.07805753     0.66970
H190        H  0.34064023  0.01886908  0.04802297     0.15870
H191        H  0.34442832  0.47270775  0.19163423     0.15580
N192        N  0.40555428  0.46920207  0.16645817     0.74670
O193        O  0.25468801  0.05213872  0.09745928    -0.38780
O194        O  0.27650765  0.52812480  0.03878075    -0.38720
O195        O  0.43046047  0.97798483  0.15848305    -0.39420
O196        O  0.40750890  0.45049249  0.19810288    -0.39490
C197        C  0.15240971  0.46348794  0.12192643    -0.11770
C198        C  0.13603277  0.48998185  0.09302345     0.05230
C199        C  0.15088752  0.01458911  0.08526277    -0.07060
C200        C  0.18167923  0.01152131  0.10526468    -0.07800
C201        C  0.19757890  0.48552663  0.13444619    -0.02350
C202        C  0.18281226  0.46097882  0.14283001     0.04460
N203        N  0.19838946  0.43324262  0.17185861     0.66970
H204        H  0.14169115  0.44418695  0.12820137     0.15870
H205        H  0.19240737  0.03096742  0.09973823     0.15580
N206        N  0.13464918  0.04384808  0.05901429     0.74670
O207        O  0.18013858  0.42036343  0.19166591    -0.38780
O208        O  0.23053340  0.41961561  0.17527297    -0.38720
O209        O  0.10640008  0.06606536  0.06997801    -0.39420
O210        O  0.15169058  0.05125023  0.03080955    -0.39490
O211        O  0.09247078  0.46731415  0.58176078    -0.74790
O212        O  0.09021546  0.01345608  0.54321741    -0.53700
C213        C  0.10422676  0.49043018  0.57121425     0.78930
O214        O  0.02074052  0.40453287  0.91785133    -0.59400
O215        O  0.47541758  0.40634985  0.95782025    -0.52430
C216        C  0.49729422  0.39322933  0.92861309     0.70950
O217        O  0.09001734  0.46573140  0.91711291    -0.73950
O218        O  0.08739979  0.01393983  0.95204114    -0.54520
C219        C  0.10117222  0.48987571  0.92519794     0.76950
O220        O  0.02778681  0.40302677  0.58383080    -0.59100
O221        O  0.47942666  0.40570889  0.54852327    -0.52220
C222        C  0.50389947  0.39174209  0.57507012     0.73540
Zr223      Zr  0.04486977  0.44999500  0.56289128     2.54710
O224        O  0.09629673  0.39847289  0.56209430    -0.79660
O225        O  0.04359249  0.45202511  0.63933064    -0.93080
Zr226      Zr  0.04217737  0.44930158  0.93800092     2.64680
O227        O  0.09271691  0.39685002  0.93784270    -0.98040
O228        O  0.03839659  0.45073601  0.86166007    -0.80100
O229        O  0.06325308  0.46707169  0.49954708    -0.83450
O230        O  0.02537663  0.43072310  0.50134787    -2.18160
O231        O  0.41522643  0.01736950  0.58678013    -0.66840
O232        O  0.41631593  0.47000181  0.55058554    -0.51410
C233        C  0.40363272  0.99371995  0.57806467     0.71930
O234        O  0.47786427  0.08067745  0.91782084    -0.59750
O235        O  0.02694536  0.07632958  0.95249222    -0.51730
C236        C  0.00288127  0.09066795  0.92569013     0.73730
O237        O  0.41339708  0.01505524  0.91733977    -0.71150
O238        O  0.41527626  0.46887324  0.95664598    -0.49820
C239        C  0.40232091  0.99141479  0.92763877     0.75110
O240        O  0.48154490  0.08038893  0.58361867    -0.66480
O241        O  0.02741968  0.07781373  0.54375466    -0.53670
C242        C  0.00506050  0.09130194  0.57233725     0.73490
Zr243      Zr  0.46152273  0.03480768  0.56361937     2.77540
O244        O  0.41091299  0.08710454  0.55978463    -0.97230
O245        O  0.46275896  0.03576213  0.64004362    -0.78050
Zr246      Zr  0.45909818  0.03439959  0.93912076     2.70070
O247        O  0.40728259  0.08535953  0.94340502    -0.79290
O248        O  0.45859460  0.03511064  0.86267866    -0.98380
Zr249      Zr  0.03948760  0.02793848  0.49923834     2.21500
Zr250      Zr  0.46448620  0.45564115  0.00306804     2.11130
O251        O  0.44070961  0.01673007  0.00216952    -2.47060
O252        O  0.47875367  0.05356105  0.00058614    -0.79090
O253        O  0.48422605  0.47396566  0.56555187    -0.71280
O254        O  0.01961481  0.00996391  0.93658804    -2.32240
O255        O  0.02213550  0.01060398  0.56346356    -2.28450
O256        O  0.48158572  0.47360253  0.93896506    -0.73040
H257        H  0.03328150  0.40605193  0.00141643     0.78950
H258        H  0.02761699  0.01799842  0.91193008     0.80040
H259        H  0.41601507  0.02505642  0.00250239     0.82270
H260        H  0.03117152  0.01880464  0.58734792     0.79870
H261        H  0.02854080  0.47535247  0.85443689     0.42910
H262        H  0.46414068  0.01098284  0.85437856     0.41880
H263        H  0.41232929  0.09944078  0.96555162     0.41560
H264        H  0.39369521  0.08065222  0.54422791     0.39490
H265        H  0.48531723  0.01843994  0.64781654     0.42620
H266        H  0.04782507  0.47301292  0.64679207     0.37410
H267        H  0.10466662  0.39699867  0.53291230     0.43520
H268        H  0.08610671  0.38020063  0.95403796     0.39940
H269        H  0.40234874  0.09099844  0.58895011     0.44860
H270        H  0.06470849  0.43304607  0.64821994     0.43580
H271        H  0.09443118  0.38861047  0.90847727     0.43720
H272        H  0.43425285  0.04684486  0.85465937     0.44070
C273        C  0.01350596  0.26692029  0.65942256     0.03630
C274        C  0.01189288  0.23870113  0.63756989    -0.12520
C275        C  0.00484586  0.21283706  0.65878250     0.01130
C276        C  0.00043120  0.21556320  0.70266854    -0.11050
C277        C  0.00588136  0.24179254  0.72601433     0.03620
C278        C  0.01204054  0.26774527  0.70335387    -0.10470
H279        H  0.01563720  0.23746925  0.60393735     0.09210
H280        H  0.99236778  0.19707636  0.71829955     0.06740
H281        H  0.01540913  0.28910166  0.71899932     0.06590
C282        C  0.99886900  0.27174481  0.84080887     0.03630
C283        C  0.99940338  0.24246406  0.86199884    -0.12520
C284        C  0.00487177  0.21202383  0.83988728     0.01130
C285        C  0.00852282  0.21189219  0.79596182    -0.11050
C286        C  0.00453185  0.24205814  0.77338911     0.03620
C287        C  0.99999623  0.27195325  0.79682307    -0.10470
H288        H  0.99654557  0.24326845  0.89580454     0.09210
H289        H  0.01500316  0.18774340  0.77980187     0.06740
H290        H  0.99734258  0.29575532  0.78171496     0.06590
C291        C  0.28038850  0.49733738  0.66089585     0.03630
C292        C  0.25558414  0.48897055  0.63863968    -0.12520
C293        C  0.22678017  0.48765181  0.65911990     0.01130
C294        C  0.22445970  0.49121107  0.70289711    -0.11050
C295        C  0.24947116  0.49859934  0.72655629     0.03620
C296        C  0.27610281  0.50372255  0.70421755    -0.10470
H297        H  0.25826814  0.48387129  0.60524134     0.09210
H298        H  0.20283305  0.48805737  0.71767847     0.06740
H299        H  0.29406226  0.51264649  0.71990132     0.06590
C300        C  0.28018671  0.49200512  0.84141259     0.03630
C301        C  0.25183074  0.48940170  0.86202775    -0.12520
C302        C  0.22138146  0.49420922  0.83999339     0.01130
C303        C  0.22001483  0.49945226  0.79642450    -0.11050
C304        C  0.24905266  0.49877163  0.77399446     0.03620
C305        C  0.27858147  0.49606668  0.79751637    -0.10500
H306        H  0.25321945  0.48357698  0.89519566     0.09210
H307        H  0.19587555  0.50413368  0.78070240     0.06740
H308        H  0.30098213  0.49669318  0.78211300     0.06590
C309        C  0.02130906  0.14060213  0.92106468    -0.11770
C310        C  0.00412068  0.12095120  0.90262480     0.05230
C311        C  0.48855185  0.13072349  0.86271503    -0.07060
C312        C  0.48856954  0.16079216  0.84382610    -0.07800
C313        C  0.00591596  0.18036992  0.86204603    -0.02350
C314        C  0.02331062  0.16946011  0.90083463     0.04460
N315        N  0.04439563  0.18615612  0.91918911     0.66970
H316        H  0.03407143  0.13299092  0.95115083     0.15870
H317        H  0.47550827  0.16847456  0.81393087     0.15580
N318        N  0.47473062  0.10936463  0.83957945     0.74670
O319        O  0.04593505  0.18884420  0.95859733    -0.38780
O320        O  0.06499919  0.19395097  0.89664048    -0.38720
O321        O  0.44725516  0.12263668  0.81888523    -0.39420
O322        O  0.99313832  0.07841680  0.83319610    -0.39490
C323        C  0.02735894  0.33943018  0.88957630    -0.11770
C324        C  0.99652647  0.36230218  0.90626016     0.05230
C325        C  0.46661001  0.35430841  0.90222532    -0.07060
C326        C  0.46852208  0.32399797  0.88185158    -0.07800
C327        C  0.99920015  0.30172330  0.86478397    -0.02350
C328        C  0.02930338  0.30914266  0.86912032     0.04460
N329        N  0.06197504  0.28635537  0.85362872     0.66970
H330        H  0.05051614  0.34481124  0.89342877     0.15870
H331        H  0.44553542  0.31829402  0.87789054     0.15580
N332        N  0.43383826  0.37713488  0.91650488     0.74670
O333        O  0.08578313  0.29730303  0.84742320    -0.38780
O334        O  0.06843925  0.25470434  0.84982995    -0.38720
O335        O  0.42361922  0.40844160  0.90725884    -0.39420
O336        O  0.41267381  0.36527440  0.93121702    -0.39490
C337        C  0.99288907  0.15327473  0.57377981    -0.11770
C338        C  0.00641767  0.12159800  0.59415021     0.05230
C339        C  0.01834661  0.11986364  0.63595112    -0.07060
C340        C  0.01743275  0.14998461  0.65583430    -0.07800
C341        C  0.00349404  0.18214035  0.63593783    -0.02350
C342        C  0.99018389  0.18369722  0.59446752     0.04460
N343        N  0.97214299  0.21568371  0.57370905     0.66970
H344        H  0.98265372  0.15448787  0.54219284     0.15870
H345        H  0.02849364  0.14800186  0.68701018     0.15580
N346        N  0.03149564  0.08800410  0.65868701     0.74670
O347        O  0.97515219  0.21844716  0.53459136    -0.38780
O348        O  0.44997983  0.23978260  0.59324906    -0.38720
O349        O  0.04826840  0.06040737  0.64016452    -0.39420
O350        O  0.52848447  0.08773379  0.69810423    -0.39490
C351        C  0.48004665  0.32231401  0.62751267    -0.11770
C352        C  0.01244455  0.29755155  0.63607583     0.05230
C353        C  0.04214417  0.30351403  0.62439643    -0.07060
C354        C  0.03821397  0.33474961  0.60488507    -0.07800
C355        C  0.00571042  0.35983926  0.59659098    -0.02350
C356        C  0.47618902  0.35351534  0.60836474     0.04460
N357        N  0.44236371  0.37893318  0.60346498     0.66970
H358        H  0.45747111  0.31770631  0.63730724     0.15870
H359        H  0.06081901  0.33935014  0.59530287     0.15580
N360        N  0.07613202  0.27868325  0.63196300     0.74670
O361        O  0.41727946  0.36996141  0.59627564    -0.38780
O362        O  0.43666033  0.40968320  0.61291206    -0.38720
O363        O  0.08127381  0.24735730  0.63651002    -0.39420
O364        O  0.10167215  0.28767611  0.63121067    -0.39490
C365        C  0.34412498  0.47380767  0.84653920    -0.11770
C366        C  0.31182423  0.49034269  0.86492019     0.05230
C367        C  0.31037050  0.50663056  0.90413588    -0.07060
C368        C  0.34035833  0.00574282  0.92401001    -0.07800
C369        C  0.37230068  0.49031414  0.90490671    -0.02350
C370        C  0.37435803  0.47476243  0.86489299     0.04460
N371        N  0.40623491  0.45993793  0.84234215     0.66970
H372        H  0.34578612  0.46050179  0.81703539     0.15870
H373        H  0.33873341  0.01825358  0.95418795     0.15580
N374        N  0.27835881  0.02683955  0.92257472     0.74670
O375        O  0.40777676  0.44216906  0.80983193    -0.38780
O376        O  0.43262028  0.46553653  0.85328120    -0.38720
O377        O  0.26908876  0.51559078  0.95558372    -0.39420
O378        O  0.26309305  0.05739952  0.91094838    -0.39490
C379        C  0.17453960  0.47176587  0.84708865    -0.11770
C380        C  0.19077170  0.49334795  0.86222378     0.05230
C381        C  0.17728335  0.51396289  0.89772403    -0.07060
C382        C  0.14868503  0.01155357  0.91810382    -0.07800
C383        C  0.13198322  0.49034830  0.90258636    -0.02350
C384        C  0.14498280  0.47062933  0.86605363     0.04460
N385        N  0.12764214  0.45088341  0.84622256     0.66970
H386        H  0.18441058  0.45630756  0.81943080     0.15870
H387        H  0.13893457  0.02733281  0.94551401     0.15580
N388        N  0.19063314  0.03905284  0.91205459     0.74670
O389        O  0.09770374  0.46581537  0.83201387    -0.38780
O390        O  0.14436510  0.42049420  0.83508785    -0.38720
O391        O  0.19713099  0.05828610  0.88586143    -0.39420
O392        O  0.19103206  0.04557685  0.95073562    -0.39490
C393        C  0.34155993  0.50889039  0.57954589    -0.11770
C394        C  0.37304181  0.49468246  0.60060291     0.05230
C395        C  0.37412780  0.48261063  0.64230096    -0.07060
C396        C  0.34349113  0.48345881  0.66057086    -0.07800
C397        C  0.31171374  0.49804424  0.63975025    -0.02350
C398        C  0.31080465  0.51189767  0.59909618     0.04460
N399        N  0.27903553  0.53049583  0.57805756     0.66970
H400        H  0.34064022  0.01886914  0.54802298     0.15870
H401        H  0.34442831  0.47270781  0.69163428     0.15580
N402        N  0.40555427  0.46920214  0.66645823     0.74670
O403        O  0.25468800  0.05213877  0.59745936    -0.38780
O404        O  0.27650768  0.52812492  0.53878077    -0.38720
O405        O  0.43046047  0.97798480  0.65848303    -0.39420
O406        O  0.40750889  0.45049257  0.69810295    -0.39490
C407        C  0.15240976  0.46348791  0.62192638    -0.11770
C408        C  0.13603280  0.48998184  0.59302343     0.05230
C409        C  0.15088751  0.01458912  0.58526276    -0.07060
C410        C  0.18167923  0.01152133  0.60526467    -0.07800
C411        C  0.19757895  0.48552661  0.63444616    -0.02350
C412        C  0.18281232  0.46097879  0.64282996     0.04460
N413        N  0.19838954  0.43324258  0.67185854     0.66970
H414        H  0.14169121  0.44418691  0.62820131     0.15870
H415        H  0.19240736  0.03096744  0.59973822     0.15580
N416        N  0.13464917  0.04384810  0.55901428     0.74670
O417        O  0.18013866  0.42036337  0.69166582    -0.38780
O418        O  0.23053347  0.41961559  0.67527290    -0.38720
O419        O  0.10640007  0.06606537  0.56997800    -0.39420
O420        O  0.15169057  0.05125024  0.53080954    -0.39490
O421        O  0.09228452  0.96736612  0.08182800    -0.74790
O422        O  0.09037176  0.51341493  0.04315047    -0.53700
C423        C  0.10405431  0.99047207  0.07128718     0.78930
O424        O  0.02065141  0.90456104  0.41786995    -0.59400
O425        O  0.47530342  0.90638619  0.45779534    -0.52430
C426        C  0.49719889  0.89325926  0.42860954     0.70950
O427        O  0.08992524  0.96575999  0.41718454    -0.73950
O428        O  0.08750753  0.51390630  0.45196940    -0.54520
C429        C  0.10107691  0.98990527  0.42527756     0.76950
O430        O  0.02760754  0.90309156  0.08383494    -0.59100
O431        O  0.47926654  0.90575565  0.04849551    -0.52220
C432        C  0.50373307  0.89179586  0.07505381     0.73540
Zr433      Zr  0.04468420  0.95006385  0.06292837     2.54710
O434        O  0.09611249  0.89854077  0.06222331    -0.79660
O435        O  0.04332691  0.95214087  0.13936426    -0.93080
Zr436      Zr  0.04207397  0.94933549  0.43803720     2.64680
O437        O  0.09261541  0.89688510  0.43793048    -0.98040
O438        O  0.03833301  0.95075092  0.36169405    -0.80100
O439        O  0.06311223  0.96711861  0.99960209    -0.83450
O440        O  0.02523431  0.93077141  0.00136790    -2.18160
O441        O  0.41541397  0.51733139  0.08684437    -0.66840
O442        O  0.41615677  0.97003019  0.05052112    -0.51410
C443        C  0.40380445  0.49369552  0.07812792     0.71930
O444        O  0.47794813  0.58064699  0.41784402    -0.59750
O445        O  0.02704966  0.57629494  0.45247011    -0.51730
C446        C  0.00296801  0.59063801  0.42569105     0.73730
O447        O  0.41350001  0.51499750  0.41739796    -0.71150
O448        O  0.41515610  0.96892675  0.45656885    -0.49820
C449        C  0.40243155  0.49135334  0.42771019     0.75110
O450        O  0.48173005  0.58032604  0.08362977    -0.66480
O451        O  0.02757635  0.57776718  0.04372256    -0.53670
C452        C  0.00523249  0.59124765  0.07232404     0.73490
Zr453      Zr  0.46170978  0.53474386  0.06365383     2.77540
O454        O  0.41110267  0.58704612  0.05987803    -0.97230
O455        O  0.46300968  0.53567287  0.14007659    -0.78050
Zr456      Zr  0.45919759  0.53436247  0.43915630     2.70070
O457        O  0.40737689  0.58531167  0.44350580    -0.79290
O458        O  0.45864220  0.53511621  0.36271460    -0.98380
Zr459      Zr  0.03962503  0.52789281  0.99920550     2.21500
Zr460      Zr  0.46434245  0.95568726  0.50303297     2.11130
O461        O  0.44085413  0.51668214  0.50222538    -2.47060
O462        O  0.47889340  0.55351245  0.50060230    -0.79090
O463        O  0.48403996  0.97402996  0.06553456    -0.71280
O464        O  0.01971354  0.50993006  0.43657442    -2.32240
O465        O  0.02231482  0.51053329  0.06343540    -2.28450
O466        O  0.48148143  0.97363858  0.43894828    -0.73040
H467        H  0.03314164  0.90609995  0.50144358     0.78950
H468        H  0.02770081  0.51797042  0.41190944     0.80040
H469        H  0.41615999  0.52500921  0.50257988     0.82270
H470        H  0.03136123  0.51873094  0.08731316     0.79870
H471        H  0.02845648  0.97536510  0.35446299     0.42910
H472        H  0.46424425  0.51098402  0.35439713     0.41880
H473        H  0.41244000  0.59939204  0.46564043     0.41560
H474        H  0.39386980  0.58060033  0.04434525     0.39490
H475        H  0.48527830  0.51785313  0.14783859     0.42620
H476        H  0.04760798  0.97310286  0.14682616     0.37410
H477        H  0.10449684  0.89703415  0.03304500     0.43520
H478        H  0.08599738  0.88024131  0.45412643     0.39940
H479        H  0.40256325  0.59093548  0.08905452     0.44860
H480        H  0.06440540  0.93313175  0.14829115     0.43580
H481        H  0.09434575  0.88863433  0.40856903     0.43720
H482        H  0.43428833  0.54680007  0.35471848     0.44070
C483        C  0.01344598  0.76695344  0.15942073     0.03630
C484        C  0.01188490  0.73871421  0.13756809    -0.12520
C485        C  0.00487399  0.71282802  0.15877640     0.01130
C486        C  0.00044839  0.71555110  0.20266157    -0.11050
C487        C  0.00585322  0.74180372  0.22601049     0.03620
C488        C  0.01197075  0.76778030  0.20335075    -0.10470
H489        H  0.01564170  0.73748379  0.10393792     0.09210
H490        H  0.99241249  0.69704354  0.21828799     0.06740
H491        H  0.01530263  0.78915529  0.21899390     0.06590
C492        C  0.99883504  0.77175301  0.34080826     0.03630
C493        C  0.99939482  0.74246402  0.36199920    -0.12520
C494        C  0.00487708  0.71202205  0.33988638     0.01130
C495        C  0.00851901  0.71189506  0.29595970    -0.11050
C496        C  0.00450456  0.74206695  0.27338644     0.03620
C497        C  0.99995218  0.77196543  0.29682229    -0.10470
H498        H  0.99654495  0.74326419  0.39580599     0.09210
H499        H  0.01501170  0.68774470  0.27980104     0.06740
H500        H  0.99727984  0.79577340  0.28171731     0.06590
C501        C  0.28027285  0.99723949  0.16090855     0.03630
C502        C  0.25547036  0.98884293  0.13868516    -0.12520
C503        C  0.22664378  0.98759038  0.15917320     0.01130
C504        C  0.22430837  0.99121031  0.20294014    -0.11050
C505        C  0.24932643  0.99860519  0.22657235     0.03620
C506        C  0.27596730  0.00369501  0.20421306    -0.10470
H507        H  0.25816553  0.98367189  0.10530432     0.09210
H508        H  0.20266448  0.98810085  0.21773250     0.06740
H509        H  0.29391414  0.01265265  0.21986738     0.06590
C510        C  0.28006078  0.99210516  0.34139098     0.03630
C511        C  0.25170883  0.98953591  0.36205516    -0.12520
C512        C  0.22125702  0.99430328  0.34004433     0.01130
C513        C  0.21987930  0.99950895  0.29646533    -0.11050
C514        C  0.24891002  0.99881645  0.27400653     0.03620
C515        C  0.27844767  0.99611896  0.29749651    -0.10500
H516        H  0.25311058  0.98376644  0.39524174     0.09210
H517        H  0.19573921  0.00416460  0.28075826     0.06740
H518        H  0.30085439  0.99671075  0.28207323     0.06590
C519        C  0.02136999  0.64058803  0.42105808    -0.11770
C520        C  0.00418838  0.62092810  0.40262554     0.05230
C521        C  0.48860542  0.63069899  0.36272304    -0.07060
C522        C  0.48860423  0.66077394  0.34383309    -0.07800
C523        C  0.00594359  0.68036111  0.36204529    -0.02350
C524        C  0.02335086  0.66945451  0.40082711     0.04460
N525        N  0.04442741  0.68616330  0.41917330     0.66970
H526        H  0.03414195  0.63297818  0.45113907     0.15870
H527        H  0.47553317  0.66845455  0.31394326     0.15580
N528        N  0.47478800  0.60933317  0.33959534     0.74670
O529        O  0.04597461  0.68884974  0.45858096    -0.38780
O530        O  0.06501800  0.69397119  0.39661678    -0.38720
O531        O  0.44730491  0.62259752  0.31891361    -0.39420
O532        O  0.99320292  0.57838834  0.33320658    -0.39490
C533        C  0.02729050  0.83945311  0.38960038    -0.11770
C534        C  0.99644676  0.86232641  0.40625653     0.05230
C535        C  0.46653404  0.85432938  0.40219360    -0.07060
C536        C  0.46846157  0.82401367  0.38182146    -0.07800
C537        C  0.99915115  0.80173726  0.36478199    -0.02350
C538        C  0.02925051  0.80916117  0.36914332     0.04460
N539        N  0.06193241  0.78637786  0.35367217     0.66970
H540        H  0.05044366  0.84483833  0.39347366     0.15870
H541        H  0.44547868  0.81830613  0.37783978     0.15580
N542        N  0.43375222  0.87715602  0.41644457     0.74670
O543        O  0.08574751  0.79732508  0.34751649    -0.38780
O544        O  0.06839436  0.75473044  0.34983186    -0.38720
O545        O  0.42353845  0.90846287  0.40720071    -0.39420
O546        O  0.41257874  0.86529558  0.43112981    -0.39490
C547        C  0.99303593  0.65322231  0.07375154    -0.11770
C548        C  0.00658249  0.62154956  0.09412704     0.05230
C549        C  0.01848699  0.61982961  0.13593755    -0.07060
C550        C  0.01753332  0.64996212  0.15582528    -0.07800
C551        C  0.00357112  0.68211467  0.13592546    -0.02350
C552        C  0.99028449  0.68365500  0.09444469     0.04460
N553        N  0.97221579  0.71563285  0.07368218     0.66970
H554        H  0.98281362  0.65442366  0.04215920     0.15870
H555        H  0.02857711  0.64799202  0.18700934     0.15580
N556        N  0.03164530  0.58797378  0.15868038     0.74670
O557        O  0.97523694  0.71840324  0.03456798    -0.38780
O558        O  0.45001938  0.73971109  0.09321191    -0.38720
O559        O  0.04843748  0.56037862  0.14016674    -0.39420
O560        O  0.52861428  0.58770526  0.19809474    -0.39490
C561        C  0.47994223  0.82234374  0.12753179    -0.11770
C562        C  0.01235273  0.79759332  0.13607177     0.05230
C563        C  0.04203674  0.80356978  0.12435554    -0.07060
C564        C  0.03807836  0.83480642  0.10483181    -0.07800
C565        C  0.00556351  0.85988498  0.09656419    -0.02350
C566        C  0.47605745  0.85354834  0.10837208     0.04460
N567        N  0.44222346  0.87895550  0.10349540     0.66970
H568        H  0.45737964  0.81772333  0.13735220     0.15870
H569        H  0.06067098  0.83941917  0.09522369     0.15580
N570        N  0.07603697  0.77875634  0.13190397     0.74670
O571        O  0.41714190  0.86996995  0.09635038    -0.38780
O572        O  0.43651468  0.90971193  0.11291569    -0.38720
O573        O  0.08120063  0.74742841  0.13648082    -0.39420
O574        O  0.10156487  0.78776713  0.13111257    -0.39490
C575        C  0.34400375  0.97384573  0.34651091    -0.11770
C576        C  0.31170333  0.99046284  0.36485275     0.05230
C577        C  0.31024341  0.00686080  0.40398318    -0.07060
C578        C  0.34048332  0.50554880  0.42414124    -0.07800
C579        C  0.37218583  0.99039834  0.40483194    -0.02350
C580        C  0.37424320  0.97479574  0.36485021     0.04460
N581        N  0.40612028  0.95993838  0.34230691     0.66970
H582        H  0.34565616  0.96049035  0.31704523     0.15870
H583        H  0.33886124  0.51798760  0.45436805     0.15580
N584        N  0.27849467  0.52643311  0.42288285     0.74670
O585        O  0.40764027  0.94219603  0.30977787    -0.38780
O586        O  0.43252050  0.96550797  0.35325058    -0.38720
O587        O  0.26884505  0.01623789  0.45537578    -0.39420
O588        O  0.26323779  0.55710020  0.41166250    -0.39490
C589        C  0.17445053  0.97181215  0.34717712    -0.11770
C590        C  0.19066479  0.99341467  0.36229907     0.05230
C591        C  0.17717300  0.01402085  0.39780542    -0.07060
C592        C  0.14878521  0.51151358  0.41801500    -0.07800
C593        C  0.13189411  0.99037794  0.40267777    -0.02350
C594        C  0.14490324  0.97065744  0.36614881     0.04460
N595        N  0.12757842  0.95089449  0.34632368     0.66970
H596        H  0.18432507  0.95635386  0.31952026     0.15870
H597        H  0.13904030  0.52729318  0.44542638     0.15580
N598        N  0.19076654  0.53897683  0.41198204     0.74670
O599        O  0.09764697  0.96581366  0.33208757    -0.38780
O600        O  0.14431337  0.92050087  0.33521620    -0.38720
O601        O  0.19733247  0.55816951  0.38579210    -0.39420
O602        O  0.19114184  0.54551653  0.45066110    -0.39490
C603        C  0.34140328  0.00874852  0.07947203    -0.11770
C604        C  0.37288613  0.99466889  0.10055668     0.05230
C605        C  0.37399073  0.98265170  0.14228808    -0.07060
C606        C  0.34337256  0.98346818  0.16058770    -0.07800
C607        C  0.31159441  0.99794446  0.13974345    -0.02350
C608        C  0.31067376  0.01170065  0.09903934     0.04460
N609        N  0.27889978  0.03012513  0.07793981     0.66970
H610        H  0.34082873  0.51907333  0.04813725     0.15870
H611        H  0.34432702  0.97277290  0.19168660     0.15580
N612        N  0.40542243  0.96930858  0.16644274     0.74670
O613        O  0.25478396  0.55228394  0.09777729    -0.38780
O614        O  0.27625791  0.02719697  0.03877110    -0.38720
O615        O  0.43062768  0.47782799  0.15851790    -0.39420
O616        O  0.40742048  0.95059075  0.19809136    -0.39490
C617        C  0.15221283  0.96351441  0.12202267    -0.11770
C618        C  0.13586180  0.99000518  0.09310508     0.05230
C619        C  0.15102615  0.51459474  0.08519645    -0.07060
C620        C  0.18180595  0.51155842  0.10520841    -0.07800
C621        C  0.19742962  0.98548970  0.13451064    -0.02350
C622        C  0.18262515  0.96097716  0.14292074     0.04460
N623        N  0.19817229  0.93324999  0.17197144     0.66970
H624        H  0.14146636  0.94423734  0.12831292     0.15870
H625        H  0.19250561  0.53102816  0.09969551     0.15580
N626        N  0.13476500  0.54385238  0.05895440     0.74670
O627        O  0.17989694  0.92039947  0.19177849    -0.38780
O628        O  0.23031329  0.91960348  0.17541028    -0.38720
O629        O  0.10650872  0.56605239  0.06992705    -0.39420
O630        O  0.15179167  0.55127453  0.03074845    -0.39490
O631        O  0.09228451  0.96736613  0.58182799    -0.74790
O632        O  0.09037178  0.51341493  0.54315047    -0.53700
C633        C  0.10405430  0.99047208  0.57128717     0.78930
O634        O  0.02065141  0.90456105  0.91786996    -0.59400
O635        O  0.47530342  0.90638619  0.95779536    -0.52430
C636        C  0.49719889  0.89325926  0.92860957     0.70950
O637        O  0.08992524  0.96576000  0.91718455    -0.73950
O638        O  0.08750751  0.51390630  0.95196938    -0.54520
C639        C  0.10107690  0.98990528  0.92527757     0.76950
O640        O  0.02760756  0.90309155  0.58383492    -0.59100
O641        O  0.47926654  0.90575564  0.54849550    -0.52220
C642        C  0.50373308  0.89179585  0.57505378     0.73540
Zr643      Zr  0.04468421  0.95006385  0.56292835     2.54710
O644        O  0.09611251  0.89854077  0.56222327    -0.79660
O645        O  0.04332693  0.95214086  0.63936424    -0.93080
Zr646      Zr  0.04207397  0.94933549  0.93803721     2.64680
O647        O  0.09261541  0.89688510  0.93793049    -0.98040
O648        O  0.03833301  0.95075092  0.86169406    -0.80100
O649        O  0.06311224  0.96711861  0.49960207    -0.83450
O650        O  0.02523433  0.93077135  0.50136789    -2.18160
O651        O  0.41541396  0.51733144  0.58684441    -0.66840
O652        O  0.41615677  0.97003019  0.55052111    -0.51410
C653        C  0.40380445  0.49369556  0.57812797     0.71930
O654        O  0.47794809  0.58064700  0.91784402    -0.59750
O655        O  0.02704963  0.57629494  0.95247011    -0.51730
C656        C  0.00296799  0.59063802  0.92569106     0.73730
O657        O  0.41349998  0.51499750  0.91739793    -0.71150
O658        O  0.41515609  0.96892676  0.95656886    -0.49820
C659        C  0.40243152  0.49135334  0.92771015     0.75110
O660        O  0.48173001  0.58032611  0.58362975    -0.66480
O661        O  0.02757637  0.57776719  0.54372256    -0.53670
C662        C  0.00523250  0.59124768  0.57232402     0.73490
Zr663      Zr  0.46170978  0.53474391  0.56365384     2.77540
O664        O  0.41110261  0.58704616  0.55987805    -0.97230
O665        O  0.46300972  0.53567296  0.64007659    -0.78050
Zr666      Zr  0.45919756  0.53436247  0.93915627     2.70070
O667        O  0.40737686  0.58531167  0.94350580    -0.79290
O668        O  0.45864216  0.53511623  0.86271457    -0.98380
Zr669      Zr  0.03962505  0.52789281  0.49920553     2.21500
Zr670      Zr  0.46434244  0.95568726  0.00303298     2.11130
O671        O  0.44085426  0.51668207  0.00222537    -2.47060
O672        O  0.47889339  0.55351240  0.00060229    -0.79090
O673        O  0.48403996  0.97402996  0.56553455    -0.71280
O674        O  0.01971349  0.50993005  0.93657447    -2.32240
O675        O  0.02231508  0.51053355  0.56343608    -2.28450
O676        O  0.48148143  0.97363858  0.93894828    -0.73040
H677        H  0.03314162  0.90610001  0.00144360     0.78950
H678        H  0.02770076  0.51797042  0.91190951     0.80040
H679        H  0.41616012  0.52500914  0.00257988     0.82270
H680        H  0.03136149  0.51873121  0.58731384     0.79870
H681        H  0.02845648  0.97536510  0.85446300     0.42910
H682        H  0.46424425  0.51098404  0.85439709     0.41880
H683        H  0.41243999  0.59939205  0.96564039     0.41560
H684        H  0.39386974  0.58060037  0.54434525     0.39490
H685        H  0.48527824  0.51785305  0.64783857     0.42620
H686        H  0.04760799  0.97310286  0.64682614     0.37410
H687        H  0.10449686  0.89703415  0.53304496     0.43520
H688        H  0.08599738  0.88024131  0.95412645     0.39940
H689        H  0.40256319  0.59093551  0.58905453     0.44860
H690        H  0.06440542  0.93313175  0.64829112     0.43580
H691        H  0.09434574  0.88863433  0.90856905     0.43720
H692        H  0.43428828  0.54680005  0.85471846     0.44070
C693        C  0.01344605  0.76695343  0.65942075     0.03630
C694        C  0.01188496  0.73871421  0.63756810    -0.12520
C695        C  0.00487405  0.71282802  0.65877640     0.01130
C696        C  0.00044845  0.71555109  0.70266157    -0.11050
C697        C  0.00585328  0.74180371  0.72601050     0.03620
C698        C  0.01197082  0.76778029  0.70335077    -0.10470
H699        H  0.01564176  0.73748379  0.60393793     0.09210
H700        H  0.99241255  0.69704353  0.71828799     0.06740
H701        H  0.01530268  0.78915529  0.71899392     0.06590
C702        C  0.99883504  0.77175301  0.84080826     0.03630
C703        C  0.99939480  0.74246403  0.86199920    -0.12520
C704        C  0.00487708  0.71202205  0.83988639     0.01130
C705        C  0.00851904  0.71189506  0.79595971    -0.11050
C706        C  0.00450460  0.74206694  0.77338645     0.03620
C707        C  0.99995221  0.77196542  0.79682230    -0.10470
H708        H  0.99654491  0.74326420  0.89580599     0.09210
H709        H  0.01501174  0.68774470  0.77980105     0.06740
H710        H  0.99727988  0.79577339  0.78171732     0.06590
C711        C  0.28027285  0.99723951  0.66090854     0.03630
C712        C  0.25547035  0.98884296  0.63868514    -0.12520
C713        C  0.22664378  0.98759040  0.65917318     0.01130
C714        C  0.22430837  0.99121032  0.70294013    -0.11050
C715        C  0.24932644  0.99860519  0.72657235     0.03620
C716        C  0.27596730  0.00369501  0.70421305    -0.10470
H717        H  0.25816551  0.98367194  0.60530430     0.09210
H718        H  0.20266448  0.98810085  0.71773249     0.06740
H719        H  0.29391415  0.01265265  0.71986738     0.06590
C720        C  0.28006077  0.99210517  0.84139098     0.03630
C721        C  0.25170882  0.98953594  0.86205517    -0.12520
C722        C  0.22125701  0.99430330  0.84004433     0.01130
C723        C  0.21987930  0.99950895  0.79646533    -0.11050
C724        C  0.24891002  0.99881645  0.77400653     0.03620
C725        C  0.27844767  0.99611896  0.79749651    -0.10500
H726        H  0.25311057  0.98376650  0.89524174     0.09210
H727        H  0.19573922  0.00416459  0.78075825     0.06740
H728        H  0.30085440  0.99671074  0.78207323     0.06590
C729        C  0.02136995  0.64058805  0.92105810    -0.11770
C730        C  0.00418835  0.62092811  0.90262554     0.05230
C731        C  0.48860540  0.63069899  0.86272303    -0.07060
C732        C  0.48860421  0.66077395  0.84383309    -0.07800
C733        C  0.00594358  0.68036111  0.86204530    -0.02350
C734        C  0.02335083  0.66945452  0.90082713     0.04460
N735        N  0.04442736  0.68616332  0.91917334     0.66970
H736        H  0.03414190  0.63297820  0.95113910     0.15870
H737        H  0.47553316  0.66845456  0.81394325     0.15580
N738        N  0.47478798  0.60933318  0.83959532     0.74670
O739        O  0.04597455  0.68884977  0.95858100    -0.38780
O740        O  0.06501797  0.69397120  0.89661683    -0.38720
O741        O  0.44730490  0.62259753  0.81891357    -0.39420
O742        O  0.99320293  0.57838833  0.83320659    -0.39490
C743        C  0.02729049  0.83945312  0.88960039    -0.11770
C744        C  0.99644676  0.86232642  0.90625653     0.05230
C745        C  0.46653403  0.85432938  0.90219363    -0.07060
C746        C  0.46846157  0.82401367  0.88182149    -0.07800
C747        C  0.99915115  0.80173726  0.86478200    -0.02350
C748        C  0.02925050  0.80916118  0.86914333     0.04460
N749        N  0.06193241  0.78637787  0.85367218     0.66970
H750        H  0.05044366  0.84483834  0.89347367     0.15870
H751        H  0.44547867  0.81830613  0.87783980     0.15580
N752        N  0.43375221  0.87715602  0.91644459     0.74670
O753        O  0.08574750  0.79732509  0.84751649    -0.38780
O754        O  0.06839436  0.75473044  0.84983189    -0.38720
O755        O  0.42353845  0.90846287  0.90720075    -0.39420
O756        O  0.41257873  0.86529557  0.93112982    -0.39490
C757        C  0.99303593  0.65322234  0.57375155    -0.11770
C758        C  0.00658251  0.62154958  0.59412703     0.05230
C759        C  0.01848704  0.61982961  0.63593752    -0.07060
C760        C  0.01753340  0.64996212  0.65582525    -0.07800
C761        C  0.00357117  0.68211467  0.63592545    -0.02350
C762        C  0.99028451  0.68365502  0.59444470     0.04460
N763        N  0.97221579  0.71563289  0.57368223     0.66970
H764        H  0.98281359  0.65442370  0.54215922     0.15870
H765        H  0.02857722  0.64799202  0.68700929     0.15580
N766        N  0.03164536  0.58797378  0.65868035     0.74670
O767        O  0.97523690  0.71840330  0.53456803    -0.38780
O768        O  0.45001940  0.73971116  0.59321199    -0.38720
O769        O  0.04843736  0.56037859  0.64016666    -0.39420
O770        O  0.52861450  0.58770533  0.69809476    -0.39490
C771        C  0.47994227  0.82234374  0.62753182    -0.11770
C772        C  0.01235278  0.79759331  0.63607178     0.05230
C773        C  0.04203678  0.80356978  0.62435554    -0.07060
C774        C  0.03807839  0.83480642  0.60483179    -0.07800
C775        C  0.00556354  0.85988496  0.59656418    -0.02350
C776        C  0.47605748  0.85354834  0.60837208     0.04460
N777        N  0.44222348  0.87895549  0.60349540     0.66970
H778        H  0.45737969  0.81772333  0.63735224     0.15870
H779        H  0.06067101  0.83941917  0.59522366     0.15580
N780        N  0.07603703  0.77875635  0.63190396     0.74670
O781        O  0.41714192  0.86996991  0.59635040    -0.38780
O782        O  0.43651469  0.90971192  0.61291566    -0.38720
O783        O  0.08120070  0.74742842  0.63648081    -0.39420
O784        O  0.10156492  0.78776714  0.63111254    -0.39490
C785        C  0.34400375  0.97384573  0.84651093    -0.11770
C786        C  0.31170332  0.99046287  0.86485274     0.05230
C787        C  0.31024340  0.00686086  0.90398315    -0.07060
C788        C  0.34048328  0.50554882  0.92414120    -0.07800
C789        C  0.37218583  0.99039835  0.90483195    -0.02350
C790        C  0.37424319  0.97479573  0.86485023     0.04460
N791        N  0.40612028  0.95993836  0.84230695     0.66970
H792        H  0.34565616  0.96049033  0.81704525     0.15870
H793        H  0.33886121  0.51798763  0.95436800     0.15580
N794        N  0.27849464  0.52643313  0.92288281     0.74670
O795        O  0.40764028  0.94219597  0.80977793    -0.38780
O796        O  0.43252050  0.96550797  0.85325059    -0.38720
O797        O  0.26884500  0.01623808  0.95537573    -0.39420
O798        O  0.26323778  0.55710023  0.91166246    -0.39490
C799        C  0.17445053  0.97181216  0.84717712    -0.11770
C800        C  0.19066478  0.99341469  0.86229907     0.05230
C801        C  0.17717299  0.01402086  0.89780542    -0.07060
C802        C  0.14878517  0.51151360  0.91801496    -0.07800
C803        C  0.13189410  0.99037795  0.90267778    -0.02350
C804        C  0.14490324  0.97065745  0.86614882     0.04460
N805        N  0.12757842  0.95089449  0.84632369     0.66970
H806        H  0.18432507  0.95635387  0.81952027     0.15870
H807        H  0.13904025  0.52729320  0.94542633     0.15580
N808        N  0.19076650  0.53897685  0.91198201     0.74670
O809        O  0.09764697  0.96581366  0.83208758    -0.38780
O810        O  0.14431338  0.92050088  0.83521621    -0.38720
O811        O  0.19733244  0.55816951  0.88579207    -0.39420
O812        O  0.19114180  0.54551655  0.95066107    -0.39490
C813        C  0.34140327  0.00874856  0.57947203    -0.11770
C814        C  0.37288612  0.99466890  0.60055667     0.05230
C815        C  0.37399073  0.98265169  0.64228805    -0.07060
C816        C  0.34337255  0.98346817  0.66058767    -0.07800
C817        C  0.31159440  0.99794449  0.63974344    -0.02350
C818        C  0.31067375  0.01170070  0.59903934     0.04460
N819        N  0.27889977  0.03012523  0.57793984     0.66970
H820        H  0.34082874  0.51907339  0.54813730     0.15870
H821        H  0.34432702  0.97277288  0.69168657     0.15580
N822        N  0.40542243  0.96930855  0.66644271     0.74670
O823        O  0.25478396  0.55228398  0.59777733    -0.38780
O824        O  0.27625791  0.02719719  0.53877110    -0.38720
O825        O  0.43062767  0.47782806  0.65851797    -0.39420
O826        O  0.40742048  0.95059072  0.69809132    -0.39490
C827        C  0.15221283  0.96351442  0.62202266    -0.11770
C828        C  0.13586180  0.99000519  0.59310507     0.05230
C829        C  0.15102618  0.51459473  0.58519643    -0.07060
C830        C  0.18180599  0.51155840  0.60520838    -0.07800
C831        C  0.19742961  0.98548972  0.63451063    -0.02350
C832        C  0.18262515  0.96097718  0.64292073     0.04460
N833        N  0.19817229  0.93325000  0.67197143     0.66970
H834        H  0.14146636  0.94423735  0.62831291     0.15870
H835        H  0.19250564  0.53102816  0.59969550     0.15580
N836        N  0.13476503  0.54385239  0.55895440     0.74670
O837        O  0.17989694  0.92039948  0.69177849    -0.38780
O838        O  0.23031329  0.91960350  0.67541026    -0.38720
O839        O  0.10650875  0.56605239  0.56992708    -0.39420
O840        O  0.15179169  0.55127455  0.53074845    -0.39490
O841        O  0.59247075  0.46731417  0.08176081    -0.74790
O842        O  0.59021546  0.01345608  0.04321743    -0.53700
C843        C  0.60422673  0.49043019  0.07121428     0.78930
O844        O  0.52074057  0.40453287  0.41785150    -0.59400
O845        O  0.97541759  0.40634986  0.45782024    -0.52430
C846        C  0.99729423  0.39322934  0.42861308     0.70950
O847        O  0.59001738  0.46573140  0.41711304    -0.73950
O848        O  0.58739978  0.01393984  0.45204111    -0.54520
C849        C  0.60117225  0.48987573  0.42519804     0.76950
O850        O  0.52778678  0.40302678  0.08383082    -0.59100
O851        O  0.97942665  0.40570884  0.04852313    -0.52220
C852        C  0.00389947  0.39174204  0.07506997     0.73540
Zr853      Zr  0.54486974  0.44999501  0.06289130     2.54710
O854        O  0.59629670  0.39847290  0.06209430    -0.79660
O855        O  0.54359247  0.45202510  0.13933066    -0.93080
Zr856      Zr  0.54217743  0.44930157  0.43800110     2.64680
O857        O  0.59271696  0.39685002  0.43784303    -0.98040
O858        O  0.53839672  0.45073591  0.36166025    -0.80100
O859        O  0.56325305  0.46707170  0.99954710    -0.83450
O860        O  0.52537661  0.43072311  0.00134789    -2.18160
O861        O  0.91522645  0.01736948  0.08678013    -0.66840
O862        O  0.91631594  0.47000175  0.05058545    -0.51410
C863        C  0.90363274  0.99371994  0.07806468     0.71930
O864        O  0.97786427  0.08067744  0.41782083    -0.59750
O865        O  0.52694535  0.07632960  0.45249221    -0.51730
C866        C  0.50288125  0.09066798  0.42569014     0.73730
O867        O  0.91339709  0.01505522  0.41733975    -0.71150
O868        O  0.91527627  0.46887324  0.45664599    -0.49820
C869        C  0.90232093  0.99141476  0.42763875     0.75110
O870        O  0.98154483  0.08038899  0.08361859    -0.66480
O871        O  0.52741968  0.07781373  0.04375469    -0.53670
C872        C  0.50506051  0.09130194  0.07233730     0.73490
Zr873      Zr  0.96152271  0.03480768  0.06361938     2.77540
O874        O  0.91091298  0.08710450  0.05978468    -0.97230
O875        O  0.96275896  0.03576213  0.14004364    -0.78050
Zr876      Zr  0.95909818  0.03439958  0.43912074     2.70070
O877        O  0.90728259  0.08535951  0.44340500    -0.79290
O878        O  0.95859461  0.03511063  0.36267864    -0.98380
Zr879      Zr  0.53948760  0.02793849  0.99923837     2.21500
Zr880      Zr  0.96448622  0.45564115  0.50306804     2.11130
O881        O  0.94070962  0.01673006  0.50216950    -2.47060
O882        O  0.97875367  0.05356103  0.50058611    -0.79090
O883        O  0.98422609  0.47396558  0.06555175    -0.71280
O884        O  0.51961483  0.00996396  0.43658791    -2.32240
O885        O  0.52213551  0.01060400  0.06346362    -2.28450
O886        O  0.98158574  0.47360253  0.43896506    -0.73040
H887        H  0.53328157  0.40605175  0.50141661     0.78950
H888        H  0.52761701  0.01799848  0.41192995     0.80040
H889        H  0.91601509  0.02505640  0.50250237     0.82270
H890        H  0.53117153  0.01880466  0.08734799     0.79870
H891        H  0.52854079  0.47535236  0.35443703     0.42910
H892        H  0.96414070  0.01098283  0.35437854     0.41880
H893        H  0.91232928  0.09944076  0.46555160     0.41560
H894        H  0.89369523  0.08065217  0.04422793     0.39490
H895        H  0.98531727  0.01844001  0.14781657     0.42620
H896        H  0.54782503  0.47301292  0.14679209     0.37410
H897        H  0.60466662  0.39699872  0.03291232     0.43520
H898        H  0.58610673  0.38020063  0.45403824     0.39940
H899        H  0.90234872  0.09099837  0.08895016     0.44860
H900        H  0.56470847  0.43304608  0.14821995     0.43580
H901        H  0.59443131  0.38861046  0.40847760     0.43720
H902        H  0.93425285  0.04684485  0.35465934     0.44070
C903        C  0.51350596  0.26692031  0.15942262     0.03630
C904        C  0.51189290  0.23870114  0.13756995    -0.12520
C905        C  0.50484585  0.21283708  0.15878256     0.01130
C906        C  0.50043117  0.21556324  0.20266860    -0.11050
C907        C  0.50588133  0.24179258  0.22601438     0.03620
C908        C  0.51204051  0.26774531  0.20335392    -0.10470
H909        H  0.51563725  0.23746924  0.10393743     0.09210
H910        H  0.49236773  0.19707641  0.21829961     0.06740
H911        H  0.51540908  0.28910171  0.21899937     0.06590
C912        C  0.49886898  0.27174486  0.34080893     0.03630
C913        C  0.49940335  0.24246412  0.36199891    -0.12520
C914        C  0.50487172  0.21202389  0.33988734     0.01130
C915        C  0.50852277  0.21189225  0.29596188    -0.11050
C916        C  0.50453180  0.24205819  0.27338917     0.03620
C917        C  0.49999621  0.27195331  0.29682313    -0.10470
H918        H  0.49654554  0.24326850  0.39580460     0.09210
H919        H  0.51500310  0.18774346  0.27980193     0.06740
H920        H  0.49734256  0.29575537  0.28171502     0.06590
C921        C  0.78038851  0.49733734  0.16089585     0.03630
C922        C  0.75558413  0.48897053  0.13863969    -0.12520
C923        C  0.72678015  0.48765181  0.15911992     0.01130
C924        C  0.72445968  0.49121109  0.20289713    -0.11050
C925        C  0.74947116  0.49859933  0.22655630     0.03620
C926        C  0.77610283  0.50372250  0.20421755    -0.10470
H927        H  0.75826812  0.48387126  0.10524135     0.09210
H928        H  0.70283302  0.48805741  0.21767849     0.06740
H929        H  0.79406230  0.51264642  0.21990131     0.06590
C930        C  0.78018671  0.49200513  0.34141262     0.03630
C931        C  0.75183074  0.48940171  0.36202778    -0.12520
C932        C  0.72138146  0.49420923  0.33999342     0.01130
C933        C  0.72001484  0.49945226  0.29642453    -0.11050
C934        C  0.74905266  0.49877163  0.27399448     0.03620
C935        C  0.77858146  0.49606670  0.29751639    -0.10500
H936        H  0.75321946  0.48357698  0.39519568     0.09210
H937        H  0.69587556  0.50413368  0.28070243     0.06740
H938        H  0.80098212  0.49669321  0.28211302     0.06590
C939        C  0.52130902  0.14060217  0.42106472    -0.11770
C940        C  0.50412064  0.12095125  0.40262483     0.05230
C941        C  0.98855184  0.13072349  0.36271503    -0.07060
C942        C  0.98856952  0.16079216  0.34382610    -0.07800
C943        C  0.50591591  0.18036998  0.36204609    -0.02350
C944        C  0.52331058  0.16946016  0.40083468     0.04460
N945        N  0.54439559  0.18615616  0.41918916     0.66970
H946        H  0.53407140  0.13299095  0.45115086     0.15870
H947        H  0.97550826  0.16847456  0.31393086     0.15580
N948        N  0.97473062  0.10936463  0.33957944     0.74670
O949        O  0.54593503  0.18884422  0.45859738    -0.38780
O950        O  0.56499914  0.19395102  0.39664053    -0.38720
O951        O  0.94725515  0.12263667  0.31888522    -0.39420
O952        O  0.49313828  0.07841686  0.33319612    -0.39490
C953        C  0.52735895  0.33943021  0.38957640    -0.11770
C954        C  0.49652649  0.36230220  0.40626029     0.05230
C955        C  0.96661001  0.35430841  0.40222531    -0.07060
C956        C  0.96852207  0.32399798  0.38185157    -0.07800
C957        C  0.49920014  0.30172335  0.36478404    -0.02350
C958        C  0.52930338  0.30914270  0.36912039     0.04460
N959        N  0.56197503  0.28635541  0.35362877     0.66970
H960        H  0.55051616  0.34481126  0.39342887     0.15870
H961        H  0.94553541  0.31829402  0.37789056     0.15580
N962        N  0.93383826  0.37713488  0.41650489     0.74670
O963        O  0.58578313  0.29730306  0.34742326    -0.38780
O964        O  0.56843923  0.25470438  0.34982997    -0.38720
O965        O  0.92361921  0.40844160  0.40725885    -0.39420
O966        O  0.91267382  0.36527440  0.43121706    -0.39490
C967        C  0.49288915  0.15327472  0.07377983    -0.11770
C968        C  0.50641768  0.12159800  0.09415027     0.05230
C969        C  0.51834653  0.11986367  0.13595121    -0.07060
C970        C  0.51743268  0.14998463  0.15583440    -0.07800
C971        C  0.50349403  0.18214037  0.13593789    -0.02350
C972        C  0.49018396  0.18369722  0.09446754     0.04460
N973        N  0.47214311  0.21568370  0.07370902     0.66970
H974        H  0.48265386  0.15448785  0.04219284     0.15870
H975        H  0.52849352  0.14800188  0.18701030     0.15580
N976        N  0.53149548  0.08800413  0.15868714     0.74670
O977        O  0.47515241  0.21844713  0.03459135    -0.38780
O978        O  0.94997984  0.23978260  0.09324908    -0.38720
O979        O  0.54826827  0.06040739  0.14016470    -0.39420
O980        O  0.02848461  0.08773380  0.19810425    -0.39490
C981        C  0.98004666  0.32231397  0.12751261    -0.11770
C982        C  0.51244454  0.29755157  0.13607587     0.05230
C983        C  0.54214416  0.30351406  0.12439649    -0.07060
C984        C  0.53821395  0.33474963  0.10488512    -0.07800
C985        C  0.50571040  0.35983927  0.09659099    -0.02350
C986        C  0.97618903  0.35351529  0.10836463     0.04460
N987        N  0.94236372  0.37893311  0.10346485     0.66970
H988        H  0.95747112  0.31770628  0.13730721     0.15870
H989        H  0.56081900  0.33935017  0.09530292     0.15580
N990        N  0.57613201  0.27868329  0.13196309     0.74670
O991        O  0.91727947  0.36996132  0.09627554    -0.38780
O992        O  0.93666032  0.40968314  0.11291191    -0.38720
O993        O  0.58127381  0.24735734  0.13651015    -0.39420
O994        O  0.60167214  0.28767616  0.13121075    -0.39490
C995        C  0.84412498  0.47380770  0.34653920    -0.11770
C996        C  0.81182423  0.49034270  0.36492021     0.05230
C997        C  0.81037051  0.50663053  0.40413592    -0.07060
C998        C  0.84035835  0.00574275  0.42401003    -0.07800
C999        C  0.87230070  0.49031413  0.40490673    -0.02350
C1000       C  0.87435804  0.47476245  0.36489299     0.04460
N1001       N  0.90623491  0.45993795  0.34234214     0.66970
H1002       H  0.84578612  0.46050183  0.31703538     0.15870
H1003       H  0.83873344  0.01825347  0.45418800     0.15580
N1004       N  0.77835884  0.02683940  0.42257483     0.74670
O1005       O  0.90777674  0.44216916  0.30983186    -0.38780
O1006       O  0.93262032  0.46553647  0.35328126    -0.38720
O1007       O  0.76908883  0.51559068  0.45558380    -0.39420
O1008       O  0.76309308  0.05739941  0.41094864    -0.39490
C1009       C  0.67453960  0.47176590  0.34708870    -0.11770
C1010       C  0.69077171  0.49334797  0.36222381     0.05230
C1011       C  0.67728337  0.51396291  0.39772407    -0.07060
C1012       C  0.64868503  0.01155356  0.41810381    -0.07800
C1013       C  0.63198325  0.49034833  0.40258645    -0.02350
C1014       C  0.64498280  0.47062936  0.36605370     0.04460
N1015       N  0.62764213  0.45088345  0.34622265     0.66970
H1016       H  0.68441056  0.45630759  0.31943085     0.15870
H1017       H  0.63893457  0.02733281  0.44551400     0.15580
N1018       N  0.69063316  0.03905282  0.41205459     0.74670
O1019       O  0.59770371  0.46581542  0.33201399    -0.38780
O1020       O  0.64436507  0.42049424  0.33508794    -0.38720
O1021       O  0.69713103  0.05828607  0.38586144    -0.39420
O1022       O  0.69103208  0.04557682  0.45073562    -0.39490
C1023       C  0.84155994  0.50889032  0.07954584    -0.11770
C1024       C  0.87304183  0.49468239  0.10060285     0.05230
C1025       C  0.87412781  0.48261055  0.14230090    -0.07060
C1026       C  0.84349115  0.48345874  0.16057082    -0.07800
C1027       C  0.81171375  0.49804418  0.13975022    -0.02350
C1028       C  0.81080465  0.51189761  0.09909615     0.04460
N1029       N  0.77903552  0.53049577  0.07805755     0.66970
H1030       H  0.84064023  0.01886907  0.04802296     0.15870
H1031       H  0.84442833  0.47270773  0.19163422     0.15580
N1032       N  0.90555430  0.46920204  0.16645815     0.74670
O1033       O  0.75468802  0.05213871  0.09745928    -0.38780
O1034       O  0.77650766  0.52812486  0.03878076    -0.38720
O1035       O  0.93046048  0.97798483  0.15848304    -0.39420
O1036       O  0.90750891  0.45049247  0.19810287    -0.39490
C1037       C  0.65240972  0.46348794  0.12192643    -0.11770
C1038       C  0.63603277  0.48998186  0.09302346     0.05230
C1039       C  0.65088752  0.01458910  0.08526277    -0.07060
C1040       C  0.68167924  0.01152131  0.10526468    -0.07800
C1041       C  0.69757892  0.48552662  0.13444619    -0.02350
C1042       C  0.68281228  0.46097881  0.14283000     0.04460
N1043       N  0.69838949  0.43324261  0.17185860     0.66970
H1044       H  0.64169116  0.44418695  0.12820138     0.15870
H1045       H  0.69240738  0.03096741  0.09973823     0.15580
N1046       N  0.63464919  0.04384808  0.05901429     0.74670
O1047       O  0.68013861  0.42036342  0.19166589    -0.38780
O1048       O  0.73053342  0.41961561  0.17527296    -0.38720
O1049       O  0.60640009  0.06606536  0.06997801    -0.39420
O1050       O  0.65169059  0.05125022  0.03080955    -0.39490
O1051       O  0.59247075  0.46731421  0.58176086    -0.74790
O1052       O  0.59021545  0.01345609  0.54321741    -0.53700
C1053       C  0.60422674  0.49043022  0.57121432     0.78930
O1054       O  0.52074054  0.40453286  0.91785141    -0.59400
O1055       O  0.97541758  0.40634985  0.95782019    -0.52430
C1056       C  0.99729421  0.39322933  0.92861303     0.70950
O1057       O  0.59001734  0.46573140  0.91711296    -0.73950
O1058       O  0.58739978  0.01393984  0.95204114    -0.54520
C1059       C  0.60117222  0.48987572  0.92519797     0.76950
O1060       O  0.52778679  0.40302681  0.58383091    -0.59100
O1061       O  0.97942666  0.40570886  0.54852318    -0.52220
C1062       C  0.00389948  0.39174205  0.57507002     0.73540
Zr1063     Zr  0.54486973  0.44999507  0.56289140     2.54710
O1064       O  0.59629670  0.39847293  0.56209459    -0.79660
O1065       O  0.54359235  0.45202533  0.63933073    -0.93080
Zr1066     Zr  0.54217739  0.44930157  0.93800099     2.64680
O1067       O  0.59271693  0.39685002  0.93784284    -0.98040
O1068       O  0.53839663  0.45073597  0.86166015    -0.80100
O1069       O  0.56325308  0.46707171  0.49954719    -0.83450
O1070       O  0.52537666  0.43072300  0.50134798    -2.18160
O1071       O  0.91522644  0.01736948  0.58678012    -0.66840
O1072       O  0.91631595  0.47000177  0.55058550    -0.51410
C1073       C  0.90363273  0.99371994  0.57806467     0.71930
O1074       O  0.97786428  0.08067743  0.91782083    -0.59750
O1075       O  0.52694536  0.07632959  0.95249222    -0.51730
C1076       C  0.50288127  0.09066796  0.92569014     0.73730
O1077       O  0.91339708  0.01505524  0.91733975    -0.71150
O1078       O  0.91527625  0.46887323  0.95664595    -0.49820
C1079       C  0.90232091  0.99141478  0.92763875     0.75110
O1080       O  0.98154486  0.08038897  0.58361860    -0.66480
O1081       O  0.52741969  0.07781372  0.54375468    -0.53670
C1082       C  0.50506053  0.09130192  0.57233730     0.73490
Zr1083     Zr  0.96152272  0.03480768  0.56361937     2.77540
O1084       O  0.91091299  0.08710451  0.55978466    -0.97230
O1085       O  0.96275897  0.03576213  0.64004362    -0.78050
Zr1086     Zr  0.95909818  0.03439958  0.93912074     2.70070
O1087       O  0.90728260  0.08535952  0.94340500    -0.79290
O1088       O  0.95859461  0.03511063  0.86267864    -0.98380
Zr1089     Zr  0.53948760  0.02793849  0.49923835     2.21500
Zr1090     Zr  0.96448620  0.45564114  0.00306800     2.11130
O1091       O  0.94070966  0.01673005  0.00216951    -2.47060
O1092       O  0.97875367  0.05356103  0.00058613    -0.79090
O1093       O  0.98422609  0.47396561  0.56555179    -0.71280
O1094       O  0.51961482  0.00996394  0.93658800    -2.32240
O1095       O  0.52213570  0.01060416  0.56346408    -2.28450
O1096       O  0.98158571  0.47360253  0.93896500    -0.73040
H1097       H  0.53328152  0.40605187  0.00141651     0.78950
H1098       H  0.52761700  0.01799845  0.91193004     0.80040
H1099       H  0.91601513  0.02505640  0.00250238     0.82270
H1100       H  0.53117172  0.01880482  0.58734846     0.79870
H1101       H  0.52854080  0.47535242  0.85443695     0.42910
H1102       H  0.96414069  0.01098282  0.85437854     0.41880
H1103       H  0.91232929  0.09944076  0.96555162     0.41560
H1104       H  0.89369523  0.08065218  0.54422792     0.39490
H1105       H  0.98531721  0.01843989  0.64781655     0.42620
H1106       H  0.54782507  0.47301307  0.64679212     0.37410
H1107       H  0.60466653  0.39699854  0.53291255     0.43520
H1108       H  0.58610672  0.38020063  0.95403808     0.39940
H1109       H  0.90234873  0.09099839  0.58895014     0.44860
H1110       H  0.56470826  0.43304622  0.64822010     0.43580
H1111       H  0.59443123  0.38861047  0.90847741     0.43720
H1112       H  0.93425285  0.04684484  0.85465935     0.44070
C1113       C  0.51350594  0.26692032  0.65942260     0.03630
C1114       C  0.51189286  0.23870116  0.63756992    -0.12520
C1115       C  0.50484582  0.21283709  0.65878253     0.01130
C1116       C  0.50043115  0.21556324  0.70266857    -0.11050
C1117       C  0.50588132  0.24179257  0.72601436     0.03620
C1118       C  0.51204051  0.26774530  0.70335390    -0.10470
H1119       H  0.51563719  0.23746928  0.60393739     0.09210
H1120       H  0.49236772  0.19707641  0.71829957     0.06740
H1121       H  0.51540911  0.28910169  0.71899936     0.06590
C1122       C  0.49886899  0.27174483  0.84080890     0.03630
C1123       C  0.49940337  0.24246408  0.86199888    -0.12520
C1124       C  0.50487175  0.21202385  0.83988730     0.01130
C1125       C  0.50852279  0.21189222  0.79596184    -0.11050
C1126       C  0.50453181  0.24205817  0.77338914     0.03620
C1127       C  0.49999621  0.27195328  0.79682311    -0.10470
H1128       H  0.49654557  0.24326845  0.89580457     0.09210
H1129       H  0.51500312  0.18774343  0.77980189     0.06740
H1130       H  0.49734255  0.29575534  0.78171500     0.06590
C1131       C  0.78038853  0.49733737  0.66089585     0.03630
C1132       C  0.75558417  0.48897054  0.63863968    -0.12520
C1133       C  0.72678020  0.48765180  0.65911989     0.01130
C1134       C  0.72445972  0.49121107  0.70289710    -0.11050
C1135       C  0.74947117  0.49859934  0.72655629     0.03620
C1136       C  0.77610284  0.50372253  0.70421756    -0.10470
H1137       H  0.75826817  0.48387128  0.60524134     0.09210
H1138       H  0.70283307  0.48805737  0.71767846     0.06740
H1139       H  0.79406229  0.51264647  0.71990133     0.06590
C1140       C  0.78018669  0.49200512  0.84141260     0.03630
C1141       C  0.75183072  0.48940170  0.86202775    -0.12520
C1142       C  0.72138145  0.49420923  0.83999338     0.01130
C1143       C  0.72001483  0.49945226  0.79642450    -0.11050
C1144       C  0.74905266  0.49877163  0.77399446     0.03620
C1145       C  0.77858146  0.49606669  0.79751638    -0.10500
H1146       H  0.75321943  0.48357698  0.89519566     0.09210
H1147       H  0.69587555  0.50413368  0.78070239     0.06740
H1148       H  0.80098212  0.49669319  0.78211302     0.06590
C1149       C  0.52130906  0.14060213  0.92106469    -0.11770
C1150       C  0.50412067  0.12095121  0.90262481     0.05230
C1151       C  0.98855187  0.13072347  0.86271501    -0.07060
C1152       C  0.98856956  0.16079214  0.84382608    -0.07800
C1153       C  0.50591595  0.18036994  0.86204605    -0.02350
C1154       C  0.52331062  0.16946012  0.90083464     0.04460
N1155       N  0.54439564  0.18615612  0.91918911     0.66970
H1156       H  0.53407144  0.13299092  0.95115083     0.15870
H1157       H  0.97550830  0.16847453  0.81393084     0.15580
N1158       N  0.97473065  0.10936461  0.83957943     0.74670
O1159       O  0.54593508  0.18884419  0.95859733    -0.38780
O1160       O  0.56499919  0.19395097  0.89664047    -0.38720
O1161       O  0.94725518  0.12263665  0.81888520    -0.39420
O1162       O  0.49313829  0.07841682  0.83319612    -0.39490
C1163       C  0.52735894  0.33943018  0.88957635    -0.11770
C1164       C  0.49652647  0.36230218  0.90626022     0.05230
C1165       C  0.96661001  0.35430840  0.90222526    -0.07060
C1166       C  0.96852208  0.32399796  0.88185153    -0.07800
C1167       C  0.49920014  0.30172331  0.86478401    -0.02350
C1168       C  0.52930338  0.30914267  0.86912037     0.04460
N1169       N  0.56197504  0.28635537  0.85362876     0.66970
H1170       H  0.55051615  0.34481124  0.89342883     0.15870
H1171       H  0.94553542  0.31829400  0.87789049     0.15580
N1172       N  0.93383825  0.37713488  0.91650481     0.74670
O1173       O  0.58578314  0.29730303  0.84742326    -0.38780
O1174       O  0.56843924  0.25470435  0.84982996    -0.38720
O1175       O  0.92361922  0.40844160  0.90725878    -0.39420
O1176       O  0.91267380  0.36527439  0.93121694    -0.39490
C1177       C  0.49288912  0.15327472  0.57377982    -0.11770
C1178       C  0.50641769  0.12159800  0.59415025     0.05230
C1179       C  0.51834657  0.11986367  0.63595117    -0.07060
C1180       C  0.51743269  0.14998465  0.65583436    -0.07800
C1181       C  0.50349402  0.18214038  0.63593786    -0.02350
C1182       C  0.49018392  0.18369722  0.59446752     0.04460
N1183       N  0.47214304  0.21568370  0.57370901     0.66970
H1184       H  0.48265381  0.15448784  0.54219283     0.15870
H1185       H  0.52849355  0.14800190  0.68701025     0.15580
N1186       N  0.53149558  0.08800414  0.65868708     0.74670
O1187       O  0.47515229  0.21844713  0.53459133    -0.38780
O1188       O  0.94997979  0.23978259  0.59324914    -0.38720
O1189       O  0.54826855  0.06040744  0.64016465    -0.39420
O1190       O  0.02848471  0.08773375  0.69810419    -0.39490
C1191       C  0.98004667  0.32231398  0.62751263    -0.11770
C1192       C  0.51244453  0.29755158  0.63607587     0.05230
C1193       C  0.54214415  0.30351408  0.62439652    -0.07060
C1194       C  0.53821395  0.33474966  0.60488518    -0.07800
C1195       C  0.50571041  0.35983930  0.59659107    -0.02350
C1196       C  0.97618904  0.35351531  0.60836467     0.04460
N1197       N  0.94236373  0.37893314  0.60346492     0.66970
H1198       H  0.95747113  0.31770629  0.63730723     0.15870
H1199       H  0.56081900  0.33935020  0.59530300     0.15580
N1200       N  0.57613201  0.27868330  0.63196310     0.74670
O1201       O  0.91727948  0.36996137  0.59627562    -0.38780
O1202       O  0.93666035  0.40968316  0.61291198    -0.38720
O1203       O  0.58127380  0.24735735  0.63651012    -0.39420
O1204       O  0.60167213  0.28767616  0.63121078    -0.39490
C1205       C  0.84412496  0.47380768  0.84653920    -0.11770
C1206       C  0.81182421  0.49034269  0.86492020     0.05230
C1207       C  0.81037049  0.50663054  0.90413590    -0.07060
C1208       C  0.84035832  0.00574282  0.92401000    -0.07800
C1209       C  0.87230067  0.49031414  0.90490670    -0.02350
C1210       C  0.87435801  0.47476244  0.86489298     0.04460
N1211       N  0.90623489  0.45993794  0.84234213     0.66970
H1212       H  0.84578611  0.46050180  0.81703539     0.15870
H1213       H  0.83873341  0.01825357  0.95418795     0.15580
N1214       N  0.77835881  0.02683954  0.92257472     0.74670
O1215       O  0.90777674  0.44216908  0.80983191    -0.38780
O1216       O  0.93262026  0.46553655  0.85328118    -0.38720
O1217       O  0.76908877  0.51559071  0.95558375    -0.39420
O1218       O  0.76309305  0.05739951  0.91094839    -0.39490
C1219       C  0.67453958  0.47176589  0.84708866    -0.11770
C1220       C  0.69077168  0.49334797  0.86222377     0.05230
C1221       C  0.67728334  0.51396291  0.89772403    -0.07060
C1222       C  0.64868502  0.01155358  0.91810381    -0.07800
C1223       C  0.63198322  0.49034832  0.90258638    -0.02350
C1224       C  0.64498278  0.47062935  0.86605365     0.04460
N1225       N  0.62764213  0.45088342  0.84622260     0.66970
H1226       H  0.68441055  0.45630758  0.81943081     0.15870
H1227       H  0.63893456  0.02733283  0.94551400     0.15580
N1228       N  0.69063314  0.03905285  0.91205457     0.74670
O1229       O  0.59770372  0.46581538  0.83201391    -0.38780
O1230       O  0.64436508  0.42049421  0.83508791    -0.38720
O1231       O  0.69713099  0.05828611  0.88586142    -0.39420
O1232       O  0.69103205  0.04557686  0.95073560    -0.39490
C1233       C  0.84155996  0.50889037  0.57954588    -0.11770
C1234       C  0.87304185  0.49468242  0.60060289     0.05230
C1235       C  0.87412783  0.48261058  0.64230094    -0.07060
C1236       C  0.84349116  0.48345878  0.66057085    -0.07800
C1237       C  0.81171377  0.49804423  0.63975025    -0.02350
C1238       C  0.81080467  0.51189766  0.59909619     0.04460
N1239       N  0.77903555  0.53049585  0.57805758     0.66970
H1240       H  0.84064022  0.01886915  0.54802298     0.15870
H1241       H  0.84442834  0.47270778  0.69163426     0.15580
N1242       N  0.90555431  0.46920208  0.66645819     0.74670
O1243       O  0.75468800  0.05213878  0.59745938    -0.38780
O1244       O  0.77650770  0.52812500  0.53878079    -0.38720
O1245       O  0.93046048  0.97798478  0.65848302    -0.39420
O1246       O  0.90750892  0.45049252  0.69810292    -0.39490
C1247       C  0.65240978  0.46348792  0.62192639    -0.11770
C1248       C  0.63603280  0.48998186  0.59302345     0.05230
C1249       C  0.65088750  0.01458913  0.58526276    -0.07060
C1250       C  0.68167922  0.01152133  0.60526466    -0.07800
C1251       C  0.69757898  0.48552660  0.63444615    -0.02350
C1252       C  0.68281235  0.46097878  0.64282995     0.04460
N1253       N  0.69838957  0.43324257  0.67185852     0.66970
H1254       H  0.64169122  0.44418692  0.62820132     0.15870
H1255       H  0.69240735  0.03096744  0.59973822     0.15580
N1256       N  0.63464917  0.04384810  0.55901427     0.74670
O1257       O  0.68013870  0.42036336  0.69166581    -0.38780
O1258       O  0.73053350  0.41961558  0.67527288    -0.38720
O1259       O  0.60640007  0.06606538  0.56997800    -0.39420
O1260       O  0.65169057  0.05125024  0.53080953    -0.39490
O1261       O  0.59228451  0.96736613  0.08182801    -0.74790
O1262       O  0.59037175  0.51341495  0.04315050    -0.53700
C1263       C  0.60405430  0.99047207  0.07128719     0.78930
O1264       O  0.52065140  0.90456106  0.41786995    -0.59400
O1265       O  0.97530343  0.90638618  0.45779534    -0.52430
C1266       C  0.99719890  0.89325925  0.42860954     0.70950
O1267       O  0.58992523  0.96576001  0.41718453    -0.73950
O1268       O  0.58750752  0.51390634  0.45196946    -0.54520
C1269       C  0.60107690  0.98990529  0.42527754     0.76950
O1270       O  0.52760755  0.90309155  0.08383494    -0.59100
O1271       O  0.97926654  0.90575565  0.04849550    -0.52220
C1272       C  0.00373307  0.89179586  0.07505380     0.73540
Zr1273     Zr  0.54468421  0.95006385  0.06292836     2.54710
O1274       O  0.59611250  0.89854077  0.06222328    -0.79660
O1275       O  0.54332692  0.95214087  0.13936425    -0.93080
Zr1276     Zr  0.54207396  0.94933551  0.43803719     2.64680
O1277       O  0.59261540  0.89688512  0.43793047    -0.98040
O1278       O  0.53833299  0.95075094  0.36169405    -0.80100
O1279       O  0.56311224  0.96711861  0.99960209    -0.83450
O1280       O  0.52523432  0.93077135  0.00136790    -2.18160
O1281       O  0.91541400  0.51733136  0.08684436    -0.66840
O1282       O  0.91615678  0.97003017  0.05052111    -0.51410
C1283       C  0.90380447  0.49369549  0.07812790     0.71930
O1284       O  0.97794811  0.58064699  0.41784400    -0.59750
O1285       O  0.52704966  0.57629495  0.45247015    -0.51730
C1286       C  0.50296803  0.59063802  0.42569109     0.73730
O1287       O  0.91350000  0.51499749  0.41739793    -0.71150
O1288       O  0.91515611  0.96892674  0.45656885    -0.49820
C1289       C  0.90243154  0.49135333  0.42771016     0.75110
O1290       O  0.98173009  0.58032600  0.08362978    -0.66480
O1291       O  0.52757633  0.57776720  0.04372258    -0.53670
C1292       C  0.50523246  0.59124768  0.07232405     0.73490
Zr1293     Zr  0.96170980  0.53474383  0.06365382     2.77540
O1294       O  0.91110272  0.58704609  0.05987802    -0.97230
O1295       O  0.96300969  0.53567282  0.14007659    -0.78050
Zr1296     Zr  0.95919758  0.53436246  0.43915626     2.70070
O1297       O  0.90737688  0.58531166  0.44350580    -0.79290
O1298       O  0.95864216  0.53511623  0.36271456    -0.98380
Zr1299     Zr  0.53962502  0.52789282  0.99920555     2.21500
Zr1300     Zr  0.96434245  0.95568724  0.50303296     2.11130
O1301       O  0.94085427  0.51668208  0.50222536    -2.47060
O1302       O  0.97889342  0.55351240  0.50060228    -0.79090
O1303       O  0.98403995  0.97402996  0.06553455    -0.71280
O1304       O  0.51971358  0.50993009  0.43657437    -2.32240
O1305       O  0.52231502  0.51053353  0.06343602    -2.28450
O1306       O  0.98148144  0.97363856  0.43894826    -0.73040
H1307       H  0.53314165  0.90609989  0.50144356     0.78950
H1308       H  0.52770086  0.51797044  0.41190939     0.80040
H1309       H  0.91616014  0.52500915  0.50257988     0.82270
H1310       H  0.53136142  0.51873119  0.08731378     0.79870
H1311       H  0.52845646  0.97536512  0.35446299     0.42910
H1312       H  0.96424423  0.51098403  0.35439708     0.41880
H1313       H  0.91244001  0.59939204  0.46564039     0.41560
H1314       H  0.89386984  0.58060030  0.04434525     0.39490
H1315       H  0.98527836  0.51785316  0.14783859     0.42620
H1316       H  0.54760798  0.97310286  0.14682615     0.37410
H1317       H  0.60449686  0.89703416  0.03304497     0.43520
H1318       H  0.58599737  0.88024132  0.45412642     0.39940
H1319       H  0.90256332  0.59093547  0.08905451     0.44860
H1320       H  0.56440542  0.93313175  0.14829113     0.43580
H1321       H  0.59434574  0.88863435  0.40856902     0.43720
H1322       H  0.93428828  0.54680007  0.35471845     0.44070
C1323       C  0.51344601  0.76695344  0.15942077     0.03630
C1324       C  0.51188493  0.73871422  0.13756812    -0.12520
C1325       C  0.50487402  0.71282803  0.15877642     0.01130
C1326       C  0.50044842  0.71555110  0.20266160    -0.11050
C1327       C  0.50585325  0.74180372  0.22601052     0.03620
C1328       C  0.51197078  0.76778030  0.20335079    -0.10470
H1329       H  0.51564173  0.73748380  0.10393795     0.09210
H1330       H  0.49241252  0.69704354  0.21828802     0.06740
H1331       H  0.51530265  0.78915530  0.21899394     0.06590
C1332       C  0.49883505  0.77175301  0.34080829     0.03630
C1333       C  0.49939483  0.74246402  0.36199922    -0.12520
C1334       C  0.50487710  0.71202205  0.33988641     0.01130
C1335       C  0.50851904  0.71189506  0.29595972    -0.11050
C1336       C  0.50450459  0.74206695  0.27338647     0.03620
C1337       C  0.49995220  0.77196543  0.29682232    -0.10470
H1338       H  0.49654496  0.74326419  0.39580602     0.09210
H1339       H  0.51501174  0.68774470  0.27980106     0.06740
H1340       H  0.49727986  0.79577340  0.28171735     0.06590
C1341       C  0.78027286  0.99723948  0.16090856     0.03630
C1342       C  0.75547036  0.98884292  0.13868516    -0.12520
C1343       C  0.72664378  0.98759038  0.15917320     0.01130
C1344       C  0.72430837  0.99121031  0.20294014    -0.11050
C1345       C  0.74932644  0.99860519  0.22657236     0.03620
C1346       C  0.77596730  0.00369500  0.20421306    -0.10470
H1347       H  0.75816553  0.98367188  0.10530433     0.09210
H1348       H  0.70266448  0.98810085  0.21773251     0.06740
H1349       H  0.79391415  0.01265264  0.21986738     0.06590
C1350       C  0.78006078  0.99210515  0.34139099     0.03630
C1351       C  0.75170883  0.98953590  0.36205517    -0.12520
C1352       C  0.72125702  0.99430328  0.34004433     0.01130
C1353       C  0.71987930  0.99950895  0.29646533    -0.11050
C1354       C  0.74891002  0.99881645  0.27400654     0.03620
C1355       C  0.77844767  0.99611896  0.29749652    -0.10500
H1356       H  0.75311058  0.98376643  0.39524174     0.09210
H1357       H  0.69573921  0.00416460  0.28075826     0.06740
H1358       H  0.80085439  0.99671075  0.28207324     0.06590
C1359       C  0.52137001  0.64058804  0.42105812    -0.11770
C1360       C  0.50418839  0.62092811  0.40262557     0.05230
C1361       C  0.98860540  0.63069899  0.36272301    -0.07060
C1362       C  0.98860420  0.66077395  0.34383307    -0.07800
C1363       C  0.50594362  0.68036111  0.36204531    -0.02350
C1364       C  0.52335088  0.66945452  0.40082714     0.04460
N1365       N  0.54442743  0.68616330  0.41917333     0.66970
H1366       H  0.53414196  0.63297819  0.45113911     0.15870
H1367       H  0.97553314  0.66845456  0.31394325     0.15580
N1368       N  0.97478797  0.60933318  0.33959531     0.74670
O1369       O  0.54597464  0.68884974  0.45858099    -0.38780
O1370       O  0.56501802  0.69397119  0.39661681    -0.38720
O1371       O  0.94730488  0.62259753  0.31891358    -0.39420
O1372       O  0.49320295  0.57838834  0.33320662    -0.39490
C1373       C  0.52729050  0.83945312  0.38960040    -0.11770
C1374       C  0.49644676  0.86232642  0.40625654     0.05230
C1375       C  0.96653404  0.85432938  0.40219359    -0.07060
C1376       C  0.96846157  0.82401367  0.38182144    -0.07800
C1377       C  0.49915116  0.80173726  0.36478202    -0.02350
C1378       C  0.52925051  0.80916118  0.36914335     0.04460
N1379       N  0.56193242  0.78637786  0.35367221     0.66970
H1380       H  0.55044366  0.84483834  0.39347368     0.15870
H1381       H  0.94547867  0.81830613  0.37783976     0.15580
N1382       N  0.93375222  0.87715601  0.41644457     0.74670
O1383       O  0.58574753  0.79732507  0.34751656    -0.38780
O1384       O  0.56839437  0.75473044  0.34983189    -0.38720
O1385       O  0.92353846  0.90846286  0.40720071    -0.39420
O1386       O  0.91257875  0.86529557  0.43112981    -0.39490
C1387       C  0.49303591  0.65322235  0.07375157    -0.11770
C1388       C  0.50658247  0.62154959  0.09412706     0.05230
C1389       C  0.51848698  0.61982963  0.13593756    -0.07060
C1390       C  0.51753334  0.64996213  0.15582529    -0.07800
C1391       C  0.50357113  0.68211468  0.13592548    -0.02350
C1392       C  0.49028449  0.68365503  0.09444471     0.04460
N1393       N  0.47221579  0.71563289  0.07368222     0.66970
H1394       H  0.48281360  0.65442370  0.04215923     0.15870
H1395       H  0.52857714  0.64799203  0.18700934     0.15580
N1396       N  0.53164527  0.58797380  0.15868040     0.74670
O1397       O  0.47523694  0.71840329  0.03456803    -0.38780
O1398       O  0.95001936  0.73971105  0.09321185    -0.38720
O1399       O  0.54843729  0.56037860  0.14016673    -0.39420
O1400       O  0.02861419  0.58770522  0.19809470    -0.39490
C1401       C  0.97994221  0.82234374  0.12753175    -0.11770
C1402       C  0.51235275  0.79759333  0.13607181     0.05230
C1403       C  0.54203675  0.80356980  0.12435557    -0.07060
C1404       C  0.53807837  0.83480643  0.10483182    -0.07800
C1405       C  0.50556351  0.85988498  0.09656421    -0.02350
C1406       C  0.97605744  0.85354834  0.10837205     0.04460
N1407       N  0.94222346  0.87895551  0.10349538     0.66970
H1408       H  0.95737962  0.81772334  0.13735216     0.15870
H1409       H  0.56067098  0.83941918  0.09522370     0.15580
N1410       N  0.57603700  0.77875636  0.13190400     0.74670
O1411       O  0.91714189  0.86996996  0.09635035    -0.38780
O1412       O  0.93651468  0.90971193  0.11291568    -0.38720
O1413       O  0.58120066  0.74742843  0.13648086    -0.39420
O1414       O  0.60156489  0.78776716  0.13111259    -0.39490
C1415       C  0.84400375  0.97384572  0.34651091    -0.11770
C1416       C  0.81170333  0.99046283  0.36485275     0.05230
C1417       C  0.81024342  0.00686077  0.40398320    -0.07060
C1418       C  0.84048331  0.50554878  0.42414124    -0.07800
C1419       C  0.87218584  0.99039832  0.40483195    -0.02350
C1420       C  0.87424320  0.97479573  0.36485021     0.04460
N1421       N  0.90612028  0.95993837  0.34230691     0.66970
H1422       H  0.84565616  0.96049035  0.31704522     0.15870
H1423       H  0.83886124  0.51798757  0.45436805     0.15580
N1424       N  0.77849467  0.52643306  0.42288289     0.74670
O1425       O  0.90764027  0.94219601  0.30977787    -0.38780
O1426       O  0.93252050  0.96550797  0.35325057    -0.38720
O1427       O  0.76884507  0.01623784  0.45537580    -0.39420
O1428       O  0.76323778  0.55710018  0.41166260    -0.39490
C1429       C  0.67445053  0.97181215  0.34717711    -0.11770
C1430       C  0.69066479  0.99341468  0.36229907     0.05230
C1431       C  0.67717300  0.01402085  0.39780542    -0.07060
C1432       C  0.64878520  0.51151362  0.41801502    -0.07800
C1433       C  0.63189410  0.99037795  0.40267776    -0.02350
C1434       C  0.64490324  0.97065745  0.36614881     0.04460
N1435       N  0.62757842  0.95089449  0.34632368     0.66970
H1436       H  0.68432507  0.95635386  0.31952026     0.15870
H1437       H  0.63904029  0.52729322  0.44542640     0.15580
N1438       N  0.69076653  0.53897687  0.41198203     0.74670
O1439       O  0.59764697  0.96581366  0.33208756    -0.38780
O1440       O  0.64431337  0.92050087  0.33521621    -0.38720
O1441       O  0.69733246  0.55816953  0.38579208    -0.39420
O1442       O  0.69114184  0.54551657  0.45066109    -0.39490
C1443       C  0.84140328  0.00874851  0.07947202    -0.11770
C1444       C  0.87288613  0.99466888  0.10055667     0.05230
C1445       C  0.87399074  0.98265169  0.14228807    -0.07060
C1446       C  0.84337256  0.98346817  0.16058769    -0.07800
C1447       C  0.81159441  0.99794446  0.13974345    -0.02350
C1448       C  0.81067376  0.01170064  0.09903934     0.04460
N1449       N  0.77889979  0.03012512  0.07793981     0.66970
H1450       H  0.84082874  0.51907332  0.04813725     0.15870
H1451       H  0.84432703  0.97277290  0.19168660     0.15580
N1452       N  0.90542243  0.96930857  0.16644273     0.74670
O1453       O  0.75478397  0.55228394  0.09777733    -0.38780
O1454       O  0.77625791  0.02719696  0.03877110    -0.38720
O1455       O  0.93062771  0.47782794  0.15851787    -0.39420
O1456       O  0.90742048  0.95059075  0.19809135    -0.39490
C1457       C  0.65221283  0.96351441  0.12202268    -0.11770
C1458       C  0.63586180  0.99000518  0.09310509     0.05230
C1459       C  0.65102616  0.51459473  0.08519645    -0.07060
C1460       C  0.68180597  0.51155841  0.10520840    -0.07800
C1461       C  0.69742962  0.98548970  0.13451064    -0.02350
C1462       C  0.68262515  0.96097716  0.14292075     0.04460
N1463       N  0.69817228  0.93324999  0.17197145     0.66970
H1464       H  0.64146635  0.94423734  0.12831293     0.15870
H1465       H  0.69250564  0.53102815  0.09969550     0.15580
N1466       N  0.63476502  0.54385238  0.05895440     0.74670
O1467       O  0.67989693  0.92039947  0.19177851    -0.38780
O1468       O  0.73031328  0.91960348  0.17541029    -0.38720
O1469       O  0.60650875  0.56605240  0.06992707    -0.39420
O1470       O  0.65179168  0.55127453  0.03074845    -0.39490
O1471       O  0.59228449  0.96736615  0.58182800    -0.74790
O1472       O  0.59037175  0.51341498  0.54315053    -0.53700
C1473       C  0.60405429  0.99047209  0.57128718     0.78930
O1474       O  0.52065140  0.90456105  0.91786998    -0.59400
O1475       O  0.97530343  0.90638618  0.95779534    -0.52430
C1476       C  0.99719889  0.89325925  0.92860954     0.70950
O1477       O  0.58992523  0.96576001  0.91718455    -0.73950
O1478       O  0.58750750  0.51390632  0.95196942    -0.54520
C1479       C  0.60107690  0.98990528  0.92527757     0.76950
O1480       O  0.52760756  0.90309155  0.58383491    -0.59100
O1481       O  0.97926655  0.90575563  0.54849549    -0.52220
C1482       C  0.00373309  0.89179585  0.57505378     0.73540
Zr1483     Zr  0.54468421  0.95006385  0.56292833     2.54710
O1484       O  0.59611252  0.89854076  0.56222321    -0.79660
O1485       O  0.54332694  0.95214085  0.63936421    -0.93080
Zr1486     Zr  0.54207396  0.94933550  0.93803722     2.64680
O1487       O  0.59261540  0.89688511  0.93793049    -0.98040
O1488       O  0.53833300  0.95075093  0.86169407    -0.80100
O1489       O  0.56311225  0.96711861  0.49960206    -0.83450
O1490       O  0.52523434  0.93077129  0.50136787    -2.18160
O1491       O  0.91541401  0.51733139  0.58684439    -0.66840
O1492       O  0.91615678  0.97003017  0.55052111    -0.51410
C1493       C  0.90380448  0.49369552  0.57812794     0.71930
O1494       O  0.97794808  0.58064700  0.91784400    -0.59750
O1495       O  0.52704963  0.57629495  0.95247014    -0.51730
C1496       C  0.50296799  0.59063802  0.92569108     0.73730
O1497       O  0.91349996  0.51499751  0.91739792    -0.71150
O1498       O  0.91515609  0.96892675  0.95656885    -0.49820
C1499       C  0.90243151  0.49135334  0.92771013     0.75110
O1500       O  0.98173008  0.58032604  0.58362975    -0.66480
O1501       O  0.52757634  0.57776722  0.54372261    -0.53670
C1502       C  0.50523244  0.59124773  0.57232404     0.73490
Zr1503     Zr  0.96170981  0.53474386  0.56365382     2.77540
O1504       O  0.91110270  0.58704612  0.55987803    -0.97230
O1505       O  0.96300973  0.53567288  0.64007658    -0.78050
Zr1506     Zr  0.95919756  0.53436247  0.93915625     2.70070
O1507       O  0.90737686  0.58531167  0.94350580    -0.79290
O1508       O  0.95864212  0.53511625  0.86271455    -0.98380
Zr1509     Zr  0.53962503  0.52789284  0.49920561     2.21500
Zr1510     Zr  0.96434245  0.95568725  0.00303296     2.11130
O1511       O  0.94085435  0.51668204  0.00222535    -2.47060
O1512       O  0.97889340  0.55351238  0.00060228    -0.79090
O1513       O  0.98403996  0.97402995  0.56553455    -0.71280
O1514       O  0.51971351  0.50993006  0.93657444    -2.32240
O1515       O  0.52231539  0.51053393  0.56343708    -2.28450
O1516       O  0.98148143  0.97363856  0.93894826    -0.73040
H1517       H  0.53314163  0.90609996  0.00144359     0.78950
H1518       H  0.52770079  0.51797042  0.91190947     0.80040
H1519       H  0.91616021  0.52500911  0.00257988     0.82270
H1520       H  0.53136180  0.51873161  0.58731486     0.79870
H1521       H  0.52845647  0.97536511  0.85446301     0.42910
H1522       H  0.96424423  0.51098405  0.85439706     0.41880
H1523       H  0.91244000  0.59939206  0.96564037     0.41560
H1524       H  0.89386982  0.58060032  0.54434526     0.39490
H1525       H  0.98527830  0.51785304  0.64783857     0.42620
H1526       H  0.54760799  0.97310286  0.64682611     0.37410
H1527       H  0.60449690  0.89703417  0.53304491     0.43520
H1528       H  0.58599737  0.88024132  0.95412645     0.39940
H1529       H  0.90256329  0.59093548  0.58905452     0.44860
H1530       H  0.56440544  0.93313175  0.64829108     0.43580
H1531       H  0.59434574  0.88863434  0.90856905     0.43720
H1532       H  0.93428824  0.54680006  0.85471845     0.44070
C1533       C  0.51344607  0.76695346  0.65942080     0.03630
C1534       C  0.51188499  0.73871424  0.63756814    -0.12520
C1535       C  0.50487407  0.71282805  0.65877643     0.01130
C1536       C  0.50044847  0.71555112  0.70266161    -0.11050
C1537       C  0.50585330  0.74180373  0.72601055     0.03620
C1538       C  0.51197084  0.76778031  0.70335082    -0.10470
H1539       H  0.51564179  0.73748382  0.60393798     0.09210
H1540       H  0.49241256  0.69704356  0.71828802     0.06740
H1541       H  0.51530270  0.78915531  0.71899397     0.06590
C1542       C  0.49883504  0.77175301  0.84080831     0.03630
C1543       C  0.49939481  0.74246402  0.86199924    -0.12520
C1544       C  0.50487709  0.71202205  0.83988642     0.01130
C1545       C  0.50851905  0.71189507  0.79595974    -0.11050
C1546       C  0.50450461  0.74206695  0.77338649     0.03620
C1547       C  0.49995222  0.77196543  0.79682235    -0.10470
H1548       H  0.49654492  0.74326419  0.89580603     0.09210
H1549       H  0.51501175  0.68774471  0.77980107     0.06740
H1550       H  0.49727989  0.79577340  0.78171738     0.06590
C1551       C  0.78027285  0.99723950  0.66090854     0.03630
C1552       C  0.75547034  0.98884296  0.63868514    -0.12520
C1553       C  0.72664377  0.98759040  0.65917318     0.01130
C1554       C  0.72430837  0.99121032  0.70294013    -0.11050
C1555       C  0.74932644  0.99860519  0.72657234     0.03620
C1556       C  0.77596730  0.00369501  0.70421305    -0.10470
H1557       H  0.75816551  0.98367194  0.60530430     0.09210
H1558       H  0.70266448  0.98810085  0.71773249     0.06740
H1559       H  0.79391415  0.01265264  0.71986737     0.06590
C1560       C  0.78006077  0.99210517  0.84139097     0.03630
C1561       C  0.75170882  0.98953594  0.86205516    -0.12520
C1562       C  0.72125701  0.99430330  0.84004432     0.01130
C1563       C  0.71987930  0.99950894  0.79646532    -0.11050
C1564       C  0.74891002  0.99881644  0.77400652     0.03620
C1565       C  0.77844767  0.99611896  0.79749650    -0.10500
H1566       H  0.75311056  0.98376649  0.89524174     0.09210
H1567       H  0.69573921  0.00416458  0.78075824     0.06740
H1568       H  0.80085440  0.99671074  0.78207323     0.06590
C1569       C  0.52136997  0.64058804  0.92105812    -0.11770
C1570       C  0.50418836  0.62092811  0.90262556     0.05230
C1571       C  0.98860539  0.63069899  0.86272301    -0.07060
C1572       C  0.98860420  0.66077395  0.84383306    -0.07800
C1573       C  0.50594360  0.68036111  0.86204532    -0.02350
C1574       C  0.52335085  0.66945452  0.90082715     0.04460
N1575       N  0.54442739  0.68616330  0.91917335     0.66970
H1576       H  0.53414191  0.63297820  0.95113911     0.15870
H1577       H  0.97553315  0.66845455  0.81394323     0.15580
N1578       N  0.97478798  0.60933317  0.83959529     0.74670
O1579       O  0.54597459  0.68884974  0.95858102    -0.38780
O1580       O  0.56501799  0.69397120  0.89661684    -0.38720
O1581       O  0.94730491  0.62259752  0.81891353    -0.39420
O1582       O  0.49320293  0.57838834  0.83320660    -0.39490
C1583       C  0.52729049  0.83945312  0.88960042    -0.11770
C1584       C  0.49644676  0.86232642  0.90625656     0.05230
C1585       C  0.96653403  0.85432938  0.90219360    -0.07060
C1586       C  0.96846157  0.82401367  0.88182144    -0.07800
C1587       C  0.49915115  0.80173725  0.86478205    -0.02350
C1588       C  0.52925051  0.80916118  0.86914338     0.04460
N1589       N  0.56193241  0.78637786  0.85367224     0.66970
H1590       H  0.55044366  0.84483834  0.89347370     0.15870
H1591       H  0.94547867  0.81830613  0.87783976     0.15580
N1592       N  0.93375221  0.87715602  0.91644456     0.74670
O1593       O  0.58574751  0.79732508  0.84751656    -0.38780
O1594       O  0.56839436  0.75473044  0.84983193    -0.38720
O1595       O  0.92353846  0.90846287  0.90720073    -0.39420
O1596       O  0.91257874  0.86529557  0.93112979    -0.39490
C1597       C  0.49303589  0.65322241  0.57375158    -0.11770
C1598       C  0.50658245  0.62154964  0.59412705     0.05230
C1599       C  0.51848700  0.61982966  0.63593755    -0.07060
C1600       C  0.51753339  0.64996216  0.65582527    -0.07800
C1601       C  0.50357117  0.68211472  0.63592548    -0.02350
C1602       C  0.49028450  0.68365508  0.59444473     0.04460
N1603       N  0.47221579  0.71563296  0.57368227     0.66970
H1604       H  0.48281355  0.65442378  0.54215925     0.15870
H1605       H  0.52857722  0.64799205  0.68700930     0.15580
N1606       N  0.53164529  0.58797384  0.65868040     0.74670
O1607       O  0.47523691  0.71840338  0.53456808    -0.38780
O1608       O  0.95001939  0.73971108  0.59321194    -0.38720
O1609       O  0.54843706  0.56037858  0.64016668    -0.39420
O1610       O  0.02861442  0.58770524  0.69809469    -0.39490
C1611       C  0.97994226  0.82234372  0.62753177    -0.11770
C1612       C  0.51235280  0.79759334  0.63607184     0.05230
C1613       C  0.54203679  0.80356981  0.62435558    -0.07060
C1614       C  0.53807839  0.83480644  0.60483181    -0.07800
C1615       C  0.50556354  0.85988498  0.59656419    -0.02350
C1616       C  0.97605748  0.85354833  0.60837206     0.04460
N1617       N  0.94222349  0.87895548  0.60349538     0.66970
H1618       H  0.95737967  0.81772331  0.63735219     0.15870
H1619       H  0.56067100  0.83941919  0.59522367     0.15580
N1620       N  0.57603704  0.77875639  0.63190401     0.74670
O1621       O  0.91714192  0.86996992  0.59635037    -0.38780
O1622       O  0.93651470  0.90971190  0.61291565    -0.38720
O1623       O  0.58120072  0.74742846  0.63648090    -0.39420
O1624       O  0.60156493  0.78776719  0.63111258    -0.39490
C1625       C  0.84400374  0.97384573  0.84651092    -0.11770
C1626       C  0.81170332  0.99046287  0.86485274     0.05230
C1627       C  0.81024339  0.00686085  0.90398315    -0.07060
C1628       C  0.84048328  0.50554881  0.92414121    -0.07800
C1629       C  0.87218582  0.99039835  0.90483195    -0.02350
C1630       C  0.87424319  0.97479573  0.86485022     0.04460
N1631       N  0.90612028  0.95993836  0.84230693     0.66970
H1632       H  0.84565616  0.96049033  0.81704524     0.15870
H1633       H  0.83886121  0.51798761  0.95436801     0.15580
N1634       N  0.77849464  0.52643309  0.92288285     0.74670
O1635       O  0.90764028  0.94219597  0.80977793    -0.38780
O1636       O  0.93252049  0.96550798  0.85325057    -0.38720
O1637       O  0.76884500  0.01623807  0.95537573    -0.39420
O1638       O  0.76323777  0.55710021  0.91166256    -0.39490
C1639       C  0.67445052  0.97181216  0.84717712    -0.11770
C1640       C  0.69066478  0.99341469  0.86229907     0.05230
C1641       C  0.67717298  0.01402087  0.89780541    -0.07060
C1642       C  0.64878516  0.51151362  0.91801497    -0.07800
C1643       C  0.63189410  0.99037796  0.90267778    -0.02350
C1644       C  0.64490324  0.97065745  0.86614882     0.04460
N1645       N  0.62757842  0.95089448  0.84632370     0.66970
H1646       H  0.68432507  0.95635386  0.81952027     0.15870
H1647       H  0.63904025  0.52729322  0.94542634     0.15580
N1648       N  0.69076650  0.53897687  0.91198200     0.74670
O1649       O  0.59764697  0.96581365  0.83208758    -0.38780
O1650       O  0.64431338  0.92050087  0.83521623    -0.38720
O1651       O  0.69733244  0.55816953  0.88579205    -0.39420
O1652       O  0.69114179  0.54551657  0.95066106    -0.39490
C1653       C  0.84140327  0.00874856  0.57947203    -0.11770
C1654       C  0.87288612  0.99466889  0.60055666     0.05230
C1655       C  0.87399073  0.98265168  0.64228804    -0.07060
C1656       C  0.84337255  0.98346815  0.66058766    -0.07800
C1657       C  0.81159440  0.99794448  0.63974343    -0.02350
C1658       C  0.81067375  0.01170070  0.59903934     0.04460
N1659       N  0.77889977  0.03012525  0.57793985     0.66970
H1660       H  0.84082877  0.51907338  0.54813729     0.15870
H1661       H  0.84432702  0.97277286  0.69168655     0.15580
N1662       N  0.90542243  0.96930853  0.66644270     0.74670
O1663       O  0.75478398  0.55228398  0.59777738    -0.38780
O1664       O  0.77625791  0.02719726  0.53877110    -0.38720
O1665       O  0.93062773  0.47782798  0.65851792    -0.39420
O1666       O  0.90742047  0.95059070  0.69809131    -0.39490
C1667       C  0.65221282  0.96351443  0.62202265    -0.11770
C1668       C  0.63586178  0.99000520  0.59310508     0.05230
C1669       C  0.65102620  0.51459474  0.58519644    -0.07060
C1670       C  0.68180602  0.51155840  0.60520838    -0.07800
C1671       C  0.69742961  0.98548972  0.63451062    -0.02350
C1672       C  0.68262514  0.96097718  0.64292073     0.04460
N1673       N  0.69817228  0.93325001  0.67197143     0.66970
H1674       H  0.64146635  0.94423735  0.62831290     0.15870
H1675       H  0.69250568  0.53102815  0.59969549     0.15580
N1676       N  0.63476504  0.54385240  0.55895442     0.74670
O1677       O  0.67989693  0.92039949  0.69177849    -0.38780
O1678       O  0.73031328  0.91960350  0.67541025    -0.38720
O1679       O  0.60650878  0.56605241  0.56992711    -0.39420
O1680       O  0.65179170  0.55127456  0.53074846    -0.39490
loop_ 
_geom_bond_atom_site_label_1 
_geom_bond_atom_site_label_2 
_geom_bond_distance 
_geom_bond_site_symmetry_2 
_ccdc_geom_bond_type 
O1          Zr13   2.438       .  S
O1            C3   1.288       .  A
O2          Zr39   2.424   1_554  S
O2          C423   1.285   1_545  A
C3          O422   1.285       .  A
C3          C198   1.495       .  S
O4          Zr16   2.449       .  S
O4          C846   1.291   1_455  A
O5          Zr40   2.424       .  S
O5            C6   1.286       .  A
C6          O844   1.291       .  A
C6          C954   1.491       .  S
O7          Zr16   2.452       .  S
O7            C9   1.290       .  A
O8         Zr249   2.416       .  S
O8          C429   1.286   1_545  A
C9          O428   1.286       .  A
C9          C173   1.494       .  S
O10         Zr13   2.432       .  S
O10         C852   1.287       .  A
O11        Zr250   2.434       .  S
O11          C12   1.289       .  A
C12         O850   1.287       .  A
C12         C985   1.484       .  S
Zr13         O14   2.434       .  S
Zr13         O15   2.435       .  S
Zr13         O19   2.371   1_554  S
Zr13         O20   2.371       .  S
Zr13        O883   2.374   1_455  S
Zr13        O465   2.367       .  S
O14          H57   0.990       .  S
O15          H56   0.990       .  S
O15          H60   0.990       .  S
Zr16         O17   2.435       .  S
Zr16         O18   2.434       .  S
Zr16        O230   2.369       .  S
Zr16        O229   2.373       .  S
Zr16        O464   2.371       .  S
Zr16        O886   2.370   1_455  S
O17          H58   0.990       .  S
O17          H61   0.990       .  S
O18          H51   0.990       .  S
O19        Zr226   2.373       .  S
O19        Zr459   2.378       .  S
O20        Zr226   2.369   1_554  S
O20       Zr1090   2.384   1_455  S
O20         H257   0.966       .  S
O21         Zr33   2.438       .  S
O21          C23   1.287   1_545  A
O22        Zr250   2.430       .  S
O22         C443   1.287       .  A
C23         O442   1.287       .  A
C23         C604   1.471       .  S
O24         Zr36   2.452       .  S
O24         C866   1.290       .  A
O25        Zr249   2.417       .  S
O25          C26   1.286       .  A
C26         O864   1.290   1_455  A
C26         C100   1.489       .  S
O27         Zr36   2.440       .  S
O27          C29   1.287   1_545  A
O28         Zr40   2.424       .  S
O28         C449   1.286       .  A
C29         O448   1.286       .  A
C29         C579   1.469       .  S
O30         Zr33   2.441       .  S
O30         C872   1.287       .  A
O31         Zr39   2.425   1_554  S
O31          C32   1.286       .  A
C32         O870   1.287   1_455  A
C32         C128   1.468       .  S
Zr33         O34   2.435       .  S
Zr33         O35   2.434       .  S
Zr33        O251   2.371       .  S
Zr33        O252   2.372       .  S
Zr33        O885   2.371       .  S
Zr33        O463   2.377   1_545  S
O34          H54   0.990       .  S
O34          H59   0.990       .  S
O35          H55   0.990       .  S
Zr36         O37   2.434       .  S
Zr36         O38   2.434       .  S
Zr36         O42   2.370       .  S
Zr36         O41   2.374       .  S
Zr36        O466   2.375   1_545  S
Zr36        O884   2.369       .  S
O37          H53   0.990       .  S
O38          H52   0.989       .  S
O38          H62   0.990       .  S
Zr39        O218   2.416       .  S
Zr39        O235   2.417       .  S
Zr39         O45   2.381   1_556  S
Zr39        O439   2.378   1_545  S
Zr39       O1092   2.379   1_456  S
Zr39        O254   2.382       .  S
Zr40        O221   2.434       .  S
Zr40        O232   2.430       .  S
Zr40         O46   2.384       .  S
Zr40       O1070   2.384       .  S
Zr40        O461   2.387       .  S
Zr40        O253   2.382       .  S
O41        Zr243   2.371       .  S
O41        Zr460   2.387   1_545  S
O41          H49   0.966       .  S
O42        Zr243   2.372       .  S
O42       Zr1089   2.379       .  S
O43        Zr853   2.374       .  S
O43        Zr453   2.377       .  S
O43        Zr250   2.382       .  S
O44        Zr436   2.371   1_545  S
O44        Zr876   2.369   1_455  S
O44        Zr249   2.382       .  S
O44          H48   0.966       .  S
O45        Zr433   2.367   1_545  S
O45        Zr873   2.371   1_455  S
O45          H50   0.965       .  S
O46        Zr856   2.370       .  S
O46        Zr456   2.375       .  S
H47         O230   0.966       .  S
C63         C142   1.475       .  S
C63          C64   1.397       .  A
C63          C68   1.400       .  A
C64          C65   1.404       .  A
C64          H69   1.082       .  S
C65         C131   1.499       .  S
C65          C66   1.410       .  A
C66          C67   1.414       .  A
C66          H70   1.079   1_455  S
C67          C76   1.510       .  S
C67          C68   1.412       .  A
C68          H71   1.079       .  S
C72         C117   1.476       .  S
C72          C73   1.398       .  A
C72          C77   1.402       .  A
C73          C74   1.403   1_655  A
C73          H78   1.083       .  S
C74         C103   1.494       .  S
C74          C75   1.408       .  A
C75          C76   1.414       .  A
C75          H79   1.080       .  S
C76          C77   1.412   1_455  A
C77          H80   1.079       .  S
C81         C187   1.494       .  S
C81          C82   1.403       .  A
C81          C86   1.405       .  A
C82          C83   1.399       .  A
C82          H87   1.083       .  S
C83         C201   1.482       .  S
C83          C84   1.402       .  A
C84          C85   1.412       .  A
C84          H88   1.078       .  S
C85          C94   1.511       .  S
C85          C86   1.413       .  A
C86          H89   1.077       .  S
C90         C156   1.499       .  S
C90          C91   1.405       .  A
C90          C95   1.406       .  A
C91          C92   1.402       .  A
C91          H96   1.081       .  S
C92         C170   1.486       .  S
C92          C93   1.402       .  A
C93          C94   1.411       .  A
C93          H97   1.079       .  S
C94          C95   1.412       .  A
C95          H98   1.074       .  S
C99         C100   1.407       .  A
C99         C104   1.405       .  A
C99         H106   1.084       .  S
C100        C941   1.415   1_455  A
C101        C102   1.401       .  A
C101        C940   1.415       .  A
C101        N108   1.435       .  S
C102        C943   1.406       .  A
C102        H107   1.083       .  S
C103        C104   1.418       .  A
C103        C942   1.406   1_455  A
C104        N105   1.437       .  S
N105        O109   1.263       .  A
N105        O110   1.262       .  A
N108        O111   1.262       .  A
N108        O952   1.262       .  A
O112        N948   1.262       .  A
C113        C114   1.407   1_455  A
C113        C118   1.404       .  A
C113        H120   1.083       .  S
C114        C846   1.491       .  S
C114        C955   1.421       .  A
C115        C116   1.404       .  A
C115        C954   1.421       .  A
C115        N122   1.436       .  S
C116        C957   1.399       .  A
C116        H121   1.084       .  S
C117        C118   1.416   1_655  A
C117        C956   1.399       .  A
C118        N119   1.445       .  S
N119        O123   1.263       .  A
N119        O124   1.262       .  A
N122        O125   1.260       .  A
N122        O126   1.263       .  A
C127        C128   1.399   1_655  A
C127        C132   1.405       .  A
C127        H134   1.084       .  S
C128        C129   1.411       .  A
C129        C130   1.402       .  A
C129        N136   1.441       .  S
C130        C131   1.410       .  A
C130        H135   1.083       .  S
C131        C132   1.422   1_455  A
C132        N133   1.437       .  S
N133        O137   1.263       .  A
N133        O978   1.263       .  A
N136        O139   1.262       .  A
N136        O980   1.263       .  A
O138        N973   1.263       .  A
O140        N976   1.263       .  A
C141        C146   1.402       .  A
C141        C982   1.402       .  A
C141        H148   1.084       .  S
C142        C143   1.414       .  A
C142        C981   1.402   1_455  A
C143        C144   1.407       .  A
C143        N150   1.445       .  S
C144        C145   1.409       .  A
C144        H149   1.083       .  S
C145        C852   1.484       .  S
C145        C986   1.415   1_455  A
C146        C985   1.415       .  A
C146        N147   1.438       .  S
N147        O151   1.263       .  A
N147        O152   1.261       .  A
N150        O153   1.262       .  A
N150        O154   1.263       .  A
C155        C156   1.410       .  A
C155        C160   1.408       .  A
C155        H162   1.082       .  S
C156        C157   1.413       .  A
C157        C578   1.398       .  A
C157        N584   1.427       .  S
C158        C577   1.398       .  A
C158        C579   1.399   1_545  A
C158        H163   1.085       .  S
C159        C449   1.469       .  S
C159        C160   1.419       .  A
C159        C578   1.399       .  A
C160        N161   1.449       .  S
N161        O165   1.263       .  A
N161        O166   1.262       .  A
N164        C577   1.427       .  S
N164        O168   1.261       .  A
N164        O587   1.261       .  A
O167        N584   1.261       .  A
C169        C170   1.403       .  A
C169        C174   1.403       .  A
C169        H176   1.084       .  S
C170        C171   1.412       .  A
C171        C592   1.403       .  A
C171        N598   1.437       .  S
C172        C591   1.403       .  A
C172        C593   1.409   1_545  A
C172        H177   1.083       .  S
C173        C174   1.418       .  A
C173        C592   1.409       .  A
C174        N175   1.433       .  S
N175        O179   1.262       .  A
N175        O180   1.262       .  A
N178        C591   1.437       .  S
N178        O181   1.262       .  A
N178        O182   1.262       .  A
C183        C184   1.401       .  A
C183        C188   1.403       .  A
C183        H610   1.084       .  S
C184        C443   1.470       .  S
C184        C185   1.417       .  A
C185        C186   1.406       .  A
C185        N192   1.446       .  S
C186        C187   1.408       .  A
C186        H191   1.083       .  S
C187        C188   1.415       .  A
C188        N189   1.436       .  S
N189        O194   1.261       .  A
N189        O613   1.262       .  A
H190        C603   1.084       .  S
N192        O196   1.263       .  A
N192        O615   1.262       .  A
O193        N609   1.262       .  A
O195        N612   1.262       .  A
C197        C198   1.411       .  A
C197        C202   1.405       .  A
C197        H204   1.083       .  S
C198        C619   1.419       .  A
C199        C200   1.400       .  A
C199        C618   1.419   1_545  A
C199        N206   1.433       .  S
C200        C621   1.402   1_545  A
C200        H205   1.084       .  S
C201        C202   1.413       .  A
C201        C620   1.402       .  A
C202        N203   1.441       .  S
N203        O207   1.263       .  A
N203        O208   1.263       .  A
N206        O209   1.263       .  A
N206        O210   1.262       .  A
O211       Zr223   2.438       .  S
O211        C213   1.288       .  A
O212       Zr249   2.424       .  S
O212        C633   1.285   1_545  A
C213        O632   1.285       .  A
C213        C408   1.495       .  S
O214       Zr226   2.449       .  S
O214       C1056   1.291   1_455  A
O215       Zr250   2.424   1_556  S
O215        C216   1.286       .  A
C216       O1054   1.291       .  A
C216       C1164   1.491       .  S
O217       Zr226   2.452       .  S
O217        C219   1.290       .  A
O218        C639   1.286   1_545  A
C219        O638   1.286       .  A
C219        C383   1.494       .  S
O220       Zr223   2.432       .  S
O220       C1062   1.287       .  A
O221        C222   1.289       .  A
C222       O1060   1.287       .  A
C222       C1195   1.484       .  S
Zr223       O224   2.434       .  S
Zr223       O225   2.435       .  S
Zr223       O229   2.371       .  S
Zr223       O230   2.371       .  S
Zr223      O1093   2.374   1_455  S
Zr223       O675   2.367       .  S
O224        H267   0.990       .  S
O225        H266   0.990       .  S
O225        H270   0.990       .  S
Zr226       O227   2.435       .  S
Zr226       O228   2.434       .  S
Zr226       O674   2.371       .  S
Zr226      O1096   2.370   1_455  S
O227        H268   0.990       .  S
O227        H271   0.990       .  S
O228        H261   0.990       .  S
O229       Zr669   2.378       .  S
O230       Zr880   2.384   1_455  S
O231       Zr243   2.438       .  S
O231        C233   1.287   1_545  A
O232        C653   1.287       .  A
C233        O652   1.287       .  A
C233        C814   1.471       .  S
O234       Zr246   2.452       .  S
O234       C1076   1.290       .  A
O235        C236   1.286       .  A
C236       O1074   1.290   1_455  A
C236        C310   1.489       .  S
O237       Zr246   2.440       .  S
O237        C239   1.287   1_545  A
O238       Zr250   2.424   1_556  S
O238        C659   1.286       .  A
C239        O658   1.286       .  A
C239        C789   1.469       .  S
O240       Zr243   2.441       .  S
O240       C1082   1.287       .  A
O241       Zr249   2.425       .  S
O241        C242   1.286       .  A
C242       O1080   1.287   1_455  A
C242        C338   1.468       .  S
Zr243       O244   2.435       .  S
Zr243       O245   2.434       .  S
Zr243      O1095   2.371       .  S
Zr243       O673   2.377   1_545  S
O244        H264   0.990       .  S
O244        H269   0.990       .  S
O245        H265   0.990       .  S
Zr246       O247   2.434       .  S
Zr246       O248   2.434       .  S
Zr246       O252   2.370   1_556  S
Zr246       O251   2.374   1_556  S
Zr246       O676   2.375   1_545  S
Zr246      O1094   2.369       .  S
O247        H263   0.990       .  S
O248        H262   0.989       .  S
O248        H272   0.990       .  S
Zr249       O649   2.378   1_545  S
Zr249       O882   2.379   1_455  S
Zr249       O255   2.381       .  S
Zr250       O860   2.384       .  S
Zr250       O671   2.387       .  S
Zr250       O256   2.384   1_554  S
O251       Zr670   2.387   1_545  S
O251        H259   0.966       .  S
O252       Zr879   2.379   1_554  S
O253      Zr1063   2.374       .  S
O253       Zr663   2.377       .  S
O254       Zr646   2.371   1_545  S
O254      Zr1086   2.369   1_455  S
O254        H258   0.966       .  S
O255       Zr643   2.367   1_545  S
O255      Zr1083   2.371   1_455  S
O255        H260   0.965       .  S
O256      Zr1066   2.370       .  S
O256       Zr666   2.375       .  S
C273        C352   1.475       .  S
C273        C274   1.397       .  A
C273        C278   1.400       .  A
C274        C275   1.404       .  A
C274        H279   1.082       .  S
C275        C341   1.499       .  S
C275        C276   1.410       .  A
C276        C277   1.414       .  A
C276        H280   1.079   1_455  S
C277        C286   1.510       .  S
C277        C278   1.412       .  A
C278        H281   1.079       .  S
C282        C327   1.476       .  S
C282        C283   1.398       .  A
C282        C287   1.402       .  A
C283        C284   1.403   1_655  A
C283        H288   1.083       .  S
C284        C313   1.494       .  S
C284        C285   1.408       .  A
C285        C286   1.414       .  A
C285        H289   1.080       .  S
C286        C287   1.412   1_455  A
C287        H290   1.079       .  S
C291        C397   1.494       .  S
C291        C292   1.403       .  A
C291        C296   1.405       .  A
C292        C293   1.399       .  A
C292        H297   1.083       .  S
C293        C411   1.482       .  S
C293        C294   1.402       .  A
C294        C295   1.412       .  A
C294        H298   1.078       .  S
C295        C304   1.511       .  S
C295        C296   1.413       .  A
C296        H299   1.077       .  S
C300        C366   1.499       .  S
C300        C301   1.405       .  A
C300        C305   1.406       .  A
C301        C302   1.402       .  A
C301        H306   1.081       .  S
C302        C380   1.486       .  S
C302        C303   1.402       .  A
C303        C304   1.411       .  A
C303        H307   1.079       .  S
C304        C305   1.412       .  A
C305        H308   1.074       .  S
C309        C310   1.407       .  A
C309        C314   1.405       .  A
C309        H316   1.084       .  S
C310       C1151   1.415   1_455  A
C311       C1150   1.415       .  A
C311        C312   1.401       .  A
C311        N318   1.435       .  S
C312       C1153   1.406       .  A
C312        H317   1.083       .  S
C313       C1152   1.406   1_455  A
C313        C314   1.418       .  A
C314        N315   1.437       .  S
N315        O319   1.263       .  A
N315        O320   1.262       .  A
N318        O321   1.262       .  A
N318       O1162   1.262       .  A
O322       N1158   1.262       .  A
C323        C324   1.407   1_455  A
C323        C328   1.404       .  A
C323        H330   1.083       .  S
C324       C1056   1.491       .  S
C324       C1165   1.421       .  A
C325       C1164   1.421       .  A
C325        C326   1.404       .  A
C325        N332   1.436       .  S
C326       C1167   1.399       .  A
C326        H331   1.084       .  S
C327       C1166   1.399       .  A
C327        C328   1.416   1_655  A
C328        N329   1.445       .  S
N329        O333   1.263       .  A
N329        O334   1.262       .  A
N332        O335   1.260       .  A
N332        O336   1.263       .  A
C337        C338   1.399   1_655  A
C337        C342   1.405       .  A
C337        H344   1.084       .  S
C338        C339   1.411       .  A
C339        C340   1.402       .  A
C339        N346   1.441       .  S
C340        C341   1.410       .  A
C340        H345   1.083       .  S
C341        C342   1.422   1_455  A
C342        N343   1.437       .  S
N343        O347   1.263       .  A
N343       O1188   1.263       .  A
N346        O349   1.262       .  A
N346       O1190   1.263       .  A
O348       N1183   1.263       .  A
O350       N1186   1.263       .  A
C351       C1192   1.402       .  A
C351        C356   1.402       .  A
C351        H358   1.084       .  S
C352       C1191   1.402   1_455  A
C352        C353   1.414       .  A
C353        C354   1.407       .  A
C353        N360   1.445       .  S
C354        C355   1.409       .  A
C354        H359   1.083       .  S
C355       C1062   1.484       .  S
C355       C1196   1.415   1_455  A
C356       C1195   1.415       .  A
C356        N357   1.438       .  S
N357        O361   1.263       .  A
N357        O362   1.261       .  A
N360        O363   1.262       .  A
N360        O364   1.263       .  A
C365        C366   1.410       .  A
C365        C370   1.408       .  A
C365        H372   1.082       .  S
C366        C367   1.413       .  A
C367        C788   1.398       .  A
C367        N794   1.427       .  S
C368        C787   1.398       .  A
C368        C789   1.399   1_545  A
C368        H373   1.085       .  S
C369        C659   1.469       .  S
C369        C788   1.399       .  A
C369        C370   1.419       .  A
C370        N371   1.449       .  S
N371        O375   1.263       .  A
N371        O376   1.262       .  A
N374        C787   1.427       .  S
N374        O797   1.261       .  A
N374        O378   1.261       .  A
O377        N794   1.261       .  A
C379        C380   1.403       .  A
C379        C384   1.403       .  A
C379        H386   1.084       .  S
C380        C381   1.412       .  A
C381        C802   1.403       .  A
C381        N808   1.437       .  S
C382        C801   1.403       .  A
C382        C803   1.409   1_545  A
C382        H387   1.083       .  S
C383        C802   1.409       .  A
C383        C384   1.418       .  A
C384        N385   1.433       .  S
N385        O389   1.262       .  A
N385        O390   1.262       .  A
N388        C801   1.437       .  S
N388        O391   1.262       .  A
N388        O392   1.262       .  A
C393        C394   1.401       .  A
C393        C398   1.403       .  A
C393        H820   1.084       .  S
C394        C653   1.470       .  S
C394        C395   1.417       .  A
C395        C396   1.406       .  A
C395        N402   1.446       .  S
C396        C397   1.408       .  A
C396        H401   1.083       .  S
C397        C398   1.415       .  A
C398        N399   1.436       .  S
N399        O823   1.262       .  A
N399        O404   1.261       .  A
H400        C813   1.084       .  S
N402        O825   1.262       .  A
N402        O406   1.263       .  A
O403        N819   1.262       .  A
O405        N822   1.262       .  A
C407        C408   1.411       .  A
C407        C412   1.405       .  A
C407        H414   1.083       .  S
C408        C829   1.419       .  A
C409        C828   1.419   1_545  A
C409        C410   1.400       .  A
C409        N416   1.433       .  S
C410        C831   1.402   1_545  A
C410        H415   1.084       .  S
C411        C830   1.402       .  A
C411        C412   1.413       .  A
C412        N413   1.441       .  S
N413        O417   1.263       .  A
N413        O418   1.263       .  A
N416        O419   1.263       .  A
N416        O420   1.262       .  A
O421       Zr433   2.438       .  S
O421        C423   1.288       .  A
O422       Zr459   2.424   1_554  S
C423        C618   1.495       .  S
O424       Zr436   2.449       .  S
O424       C1266   1.291   1_455  A
O425       Zr460   2.424       .  S
O425        C426   1.286       .  A
C426       O1264   1.291       .  A
C426       C1374   1.491       .  S
O427       Zr436   2.451       .  S
O427        C429   1.290       .  A
O428       Zr669   2.416       .  S
C429        C593   1.494       .  S
O430       Zr433   2.432       .  S
O430       C1272   1.287       .  A
O431       Zr670   2.434       .  S
O431        C432   1.289       .  A
C432       O1270   1.287       .  A
C432       C1405   1.484       .  S
Zr433       O434   2.434       .  S
Zr433       O435   2.435       .  S
Zr433       O439   2.371   1_554  S
Zr433       O440   2.371       .  S
Zr433      O1303   2.374   1_455  S
O434        H477   0.990       .  S
O435        H476   0.990       .  S
O435        H480   0.990       .  S
Zr436       O437   2.435       .  S
Zr436       O438   2.434       .  S
Zr436       O650   2.369       .  S
Zr436       O649   2.373       .  S
Zr436      O1306   2.370   1_455  S
O437        H478   0.990       .  S
O437        H481   0.990       .  S
O438        H471   0.990       .  S
O439       Zr646   2.373       .  S
O440       Zr646   2.369   1_554  S
O440      Zr1510   2.384   1_455  S
O440        H677   0.966       .  S
O441       Zr453   2.438       .  S
O441        C443   1.287       .  A
O442       Zr670   2.429       .  S
O444       Zr456   2.452       .  S
O444       C1286   1.290       .  A
O445       Zr669   2.417       .  S
O445        C446   1.286       .  A
C446       O1284   1.290   1_455  A
C446        C520   1.489       .  S
O447       Zr456   2.441       .  S
O447        C449   1.287       .  A
O448       Zr460   2.424       .  S
O450       Zr453   2.440       .  S
O450       C1292   1.287       .  A
O451       Zr459   2.425   1_554  S
O451        C452   1.286       .  A
C452       O1290   1.287   1_455  A
C452        C548   1.468       .  S
Zr453       O454   2.435       .  S
Zr453       O455   2.434       .  S
Zr453       O671   2.371       .  S
Zr453       O672   2.372       .  S
Zr453      O1305   2.370       .  S
O454        H474   0.990       .  S
O454        H479   0.990       .  S
O455        H475   0.990       .  S
Zr456       O457   2.434       .  S
Zr456       O458   2.434       .  S
Zr456       O462   2.370       .  S
Zr456       O461   2.374       .  S
Zr456      O1304   2.369       .  S
O457        H473   0.990       .  S
O458        H472   0.989       .  S
O458        H482   0.990       .  S
Zr459       O638   2.416       .  S
Zr459       O655   2.417       .  S
Zr459      O1512   2.379   1_456  S
Zr459       O674   2.382       .  S
Zr459       O465   2.381   1_556  S
Zr460       O641   2.434       .  S
Zr460       O652   2.429       .  S
Zr460      O1490   2.384       .  S
Zr460       O673   2.382       .  S
Zr460       O466   2.384       .  S
O461       Zr663   2.371       .  S
O461        H469   0.966       .  S
O462       Zr663   2.372       .  S
O462      Zr1509   2.379       .  S
O463      Zr1273   2.374       .  S
O463       Zr670   2.382       .  S
O464      Zr1296   2.369   1_455  S
O464       Zr669   2.382       .  S
O464        H468   0.966       .  S
O465      Zr1293   2.370   1_455  S
O465        H470   0.965       .  S
O466      Zr1276   2.370       .  S
H467        O650   0.966       .  S
C483        C562   1.475       .  S
C483        C484   1.397       .  A
C483        C488   1.400       .  A
C484        C485   1.404       .  A
C484        H489   1.082       .  S
C485        C551   1.499       .  S
C485        C486   1.410       .  A
C486        C487   1.414       .  A
C486        H490   1.079   1_455  S
C487        C496   1.510       .  S
C487        C488   1.412       .  A
C488        H491   1.079       .  S
C492        C537   1.476       .  S
C492        C493   1.398       .  A
C492        C497   1.402       .  A
C493        C494   1.403   1_655  A
C493        H498   1.083       .  S
C494        C523   1.494       .  S
C494        C495   1.408       .  A
C495        C496   1.414       .  A
C495        H499   1.080       .  S
C496        C497   1.412   1_455  A
C497        H500   1.079       .  S
C501        C607   1.494       .  S
C501        C502   1.403       .  A
C501        C506   1.405   1_565  A
C502        C503   1.399       .  A
C502        H507   1.083       .  S
C503        C621   1.482       .  S
C503        C504   1.402       .  A
C504        C505   1.412       .  A
C504        H508   1.078       .  S
C505        C514   1.510       .  S
C505        C506   1.413   1_565  A
C506        H509   1.077       .  S
C510        C576   1.499       .  S
C510        C511   1.405       .  A
C510        C515   1.406       .  A
C511        C512   1.402       .  A
C511        H516   1.081       .  S
C512        C590   1.486       .  S
C512        C513   1.403       .  A
C513        C514   1.411       .  A
C513        H517   1.079   1_565  S
C514        C515   1.412       .  A
C515        H518   1.074       .  S
C519        C520   1.407       .  A
C519        C524   1.405       .  A
C519        H526   1.084       .  S
C520       C1361   1.415   1_455  A
C521       C1360   1.415       .  A
C521        C522   1.401       .  A
C521        N528   1.435       .  S
C522       C1363   1.406       .  A
C522        H527   1.083       .  S
C523       C1362   1.406   1_455  A
C523        C524   1.418       .  A
C524        N525   1.437       .  S
N525        O529   1.263       .  A
N525        O530   1.262       .  A
N528        O531   1.262       .  A
N528       O1372   1.262       .  A
O532       N1368   1.262       .  A
C533        C534   1.407   1_455  A
C533        C538   1.404       .  A
C533        H540   1.083       .  S
C534       C1266   1.491       .  S
C534       C1375   1.421       .  A
C535       C1374   1.421       .  A
C535        C536   1.404       .  A
C535        N542   1.436       .  S
C536       C1377   1.399       .  A
C536        H541   1.084       .  S
C537       C1376   1.399       .  A
C537        C538   1.416   1_655  A
C538        N539   1.445       .  S
N539        O543   1.263       .  A
N539        O544   1.262       .  A
N542        O545   1.260       .  A
N542        O546   1.263       .  A
C547        C548   1.399   1_655  A
C547        C552   1.405       .  A
C547        H554   1.084       .  S
C548        C549   1.411       .  A
C549        C550   1.402       .  A
C549        N556   1.441       .  S
C550        C551   1.410       .  A
C550        H555   1.083       .  S
C551        C552   1.422   1_455  A
C552        N553   1.437       .  S
N553        O557   1.263       .  A
N553       O1398   1.263       .  A
N556        O559   1.262       .  A
N556       O1400   1.263       .  A
O558       N1393   1.263       .  A
O560       N1396   1.263       .  A
C561       C1402   1.402       .  A
C561        C566   1.402       .  A
C561        H568   1.084       .  S
C562       C1401   1.402   1_455  A
C562        C563   1.414       .  A
C563        C564   1.407       .  A
C563        N570   1.445       .  S
C564        C565   1.409       .  A
C564        H569   1.083       .  S
C565       C1272   1.484       .  S
C565       C1406   1.415   1_455  A
C566       C1405   1.415       .  A
C566        N567   1.438       .  S
N567        O571   1.263       .  A
N567        O572   1.261       .  A
N570        O573   1.262       .  A
N570        O574   1.263       .  A
C575        C576   1.409       .  A
C575        C580   1.408       .  A
C575        H582   1.082       .  S
C576        C577   1.413   1_565  A
C578        H583   1.085       .  S
C579        C580   1.419       .  A
C580        N581   1.449       .  S
N581        O585   1.263       .  A
N581        O586   1.262       .  A
N584        O588   1.261       .  A
C589        C590   1.403       .  A
C589        C594   1.403       .  A
C589        H596   1.084       .  S
C590        C591   1.412   1_565  A
C592        H597   1.083       .  S
C593        C594   1.418       .  A
C594        N595   1.433       .  S
N595        O599   1.262       .  A
N595        O600   1.262       .  A
N598        O601   1.262       .  A
N598        O602   1.262       .  A
C603        C604   1.401   1_545  A
C603        C608   1.403       .  A
C604        C605   1.417       .  A
C605        C606   1.406       .  A
C605        N612   1.446       .  S
C606        C607   1.408       .  A
C606        H611   1.083       .  S
C607        C608   1.415   1_565  A
C608        N609   1.436       .  S
N609        O614   1.261       .  A
N612        O616   1.263       .  A
C617        C618   1.411       .  A
C617        C622   1.405       .  A
C617        H624   1.083       .  S
C619        C620   1.400       .  A
C619        N626   1.433       .  S
C620        H625   1.084       .  S
C621        C622   1.413       .  A
C622        N623   1.441       .  S
N623        O627   1.263       .  A
N623        O628   1.263       .  A
N626        O629   1.263       .  A
N626        O630   1.262       .  A
O631       Zr643   2.438       .  S
O631        C633   1.288       .  A
O632       Zr669   2.424       .  S
C633        C828   1.495       .  S
O634       Zr646   2.449       .  S
O634       C1476   1.291   1_455  A
O635       Zr670   2.424   1_556  S
O635        C636   1.286       .  A
C636       O1474   1.291       .  A
C636       C1584   1.491       .  S
O637       Zr646   2.451       .  S
O637        C639   1.290       .  A
C639        C803   1.494       .  S
O640       Zr643   2.432       .  S
O640       C1482   1.287       .  A
O641        C642   1.289       .  A
C642       O1480   1.287       .  A
C642       C1615   1.484       .  S
Zr643       O644   2.434       .  S
Zr643       O645   2.435       .  S
Zr643       O649   2.371       .  S
Zr643       O650   2.371       .  S
Zr643      O1513   2.374   1_455  S
O644        H687   0.990       .  S
O645        H686   0.990       .  S
O645        H690   0.990       .  S
Zr646       O647   2.435       .  S
Zr646       O648   2.434       .  S
Zr646      O1516   2.370   1_455  S
O647        H688   0.990       .  S
O647        H691   0.990       .  S
O648        H681   0.990       .  S
O650      Zr1300   2.384   1_455  S
O651       Zr663   2.438       .  S
O651        C653   1.287       .  A
O654       Zr666   2.452       .  S
O654       C1496   1.290       .  A
O655        C656   1.286       .  A
C656       O1494   1.290   1_455  A
C656        C730   1.489       .  S
O657       Zr666   2.441       .  S
O657        C659   1.287       .  A
O658       Zr670   2.424   1_556  S
O660       Zr663   2.440       .  S
O660       C1502   1.287       .  A
O661       Zr669   2.425       .  S
O661        C662   1.286       .  A
C662       O1500   1.287   1_455  A
C662        C758   1.468       .  S
Zr663       O664   2.435       .  S
Zr663       O665   2.434       .  S
Zr663      O1515   2.370       .  S
O664        H684   0.990       .  S
O664        H689   0.990       .  S
O665        H685   0.990       .  S
Zr666       O667   2.434       .  S
Zr666       O668   2.434       .  S
Zr666       O672   2.370   1_556  S
Zr666       O671   2.374   1_556  S
Zr666      O1514   2.369       .  S
O667        H683   0.990       .  S
O668        H682   0.989       .  S
O668        H692   0.990       .  S
Zr669      O1302   2.379   1_455  S
Zr669       O675   2.381       .  S
Zr670      O1280   2.384       .  S
Zr670       O676   2.384   1_554  S
O671        H679   0.966       .  S
O672      Zr1299   2.379   1_554  S
O673      Zr1483   2.374       .  S
O674      Zr1506   2.369   1_455  S
O674        H678   0.966       .  S
O675      Zr1503   2.370   1_455  S
O675        H680   0.965       .  S
O676      Zr1486   2.370       .  S
C693        C772   1.475       .  S
C693        C694   1.397       .  A
C693        C698   1.400       .  A
C694        C695   1.404       .  A
C694        H699   1.082       .  S
C695        C761   1.499       .  S
C695        C696   1.410       .  A
C696        C697   1.414       .  A
C696        H700   1.079   1_455  S
C697        C706   1.510       .  S
C697        C698   1.412       .  A
C698        H701   1.079       .  S
C702        C747   1.476       .  S
C702        C703   1.398       .  A
C702        C707   1.402       .  A
C703        C704   1.403   1_655  A
C703        H708   1.083       .  S
C704        C733   1.494       .  S
C704        C705   1.408       .  A
C705        C706   1.414       .  A
C705        H709   1.080       .  S
C706        C707   1.412   1_455  A
C707        H710   1.079       .  S
C711        C817   1.494       .  S
C711        C712   1.403       .  A
C711        C716   1.405   1_565  A
C712        C713   1.399       .  A
C712        H717   1.083       .  S
C713        C831   1.482       .  S
C713        C714   1.402       .  A
C714        C715   1.412       .  A
C714        H718   1.078       .  S
C715        C724   1.510       .  S
C715        C716   1.413   1_565  A
C716        H719   1.077       .  S
C720        C786   1.499       .  S
C720        C721   1.405       .  A
C720        C725   1.406       .  A
C721        C722   1.402       .  A
C721        H726   1.081       .  S
C722        C800   1.486       .  S
C722        C723   1.403       .  A
C723        C724   1.411       .  A
C723        H727   1.079   1_565  S
C724        C725   1.412       .  A
C725        H728   1.074       .  S
C729        C730   1.407       .  A
C729        C734   1.405       .  A
C729        H736   1.084       .  S
C730       C1571   1.415   1_455  A
C731       C1570   1.415       .  A
C731        C732   1.401       .  A
C731        N738   1.435       .  S
C732       C1573   1.406       .  A
C732        H737   1.083       .  S
C733       C1572   1.406   1_455  A
C733        C734   1.418       .  A
C734        N735   1.437       .  S
N735        O739   1.263       .  A
N735        O740   1.262       .  A
N738        O741   1.262       .  A
N738       O1582   1.262       .  A
O742       N1578   1.262       .  A
C743        C744   1.407   1_455  A
C743        C748   1.404       .  A
C743        H750   1.083       .  S
C744       C1476   1.491       .  S
C744       C1585   1.421       .  A
C745       C1584   1.421       .  A
C745        C746   1.404       .  A
C745        N752   1.436       .  S
C746       C1587   1.399       .  A
C746        H751   1.084       .  S
C747       C1586   1.399       .  A
C747        C748   1.416   1_655  A
C748        N749   1.445       .  S
N749        O753   1.263       .  A
N749        O754   1.262       .  A
N752        O755   1.260       .  A
N752        O756   1.263       .  A
C757        C758   1.399   1_655  A
C757        C762   1.405       .  A
C757        H764   1.084       .  S
C758        C759   1.411       .  A
C759        C760   1.402       .  A
C759        N766   1.441       .  S
C760        C761   1.410       .  A
C760        H765   1.083       .  S
C761        C762   1.422   1_455  A
C762        N763   1.437       .  S
N763        O767   1.263       .  A
N763       O1608   1.263       .  A
N766        O769   1.262       .  A
N766       O1610   1.263       .  A
O768       N1603   1.263       .  A
O770       N1606   1.263       .  A
C771       C1612   1.402       .  A
C771        C776   1.402       .  A
C771        H778   1.084       .  S
C772       C1611   1.402   1_455  A
C772        C773   1.414       .  A
C773        C774   1.407       .  A
C773        N780   1.445       .  S
C774        C775   1.409       .  A
C774        H779   1.083       .  S
C775       C1482   1.484       .  S
C775       C1616   1.415   1_455  A
C776       C1615   1.415       .  A
C776        N777   1.438       .  S
N777        O781   1.263       .  A
N777        O782   1.261       .  A
N780        O783   1.262       .  A
N780        O784   1.263       .  A
C785        C786   1.409       .  A
C785        C790   1.408       .  A
C785        H792   1.082       .  S
C786        C787   1.413   1_565  A
C788        H793   1.085       .  S
C789        C790   1.419       .  A
C790        N791   1.449       .  S
N791        O795   1.263       .  A
N791        O796   1.262       .  A
N794        O798   1.261       .  A
C799        C800   1.403       .  A
C799        C804   1.403       .  A
C799        H806   1.084       .  S
C800        C801   1.412   1_565  A
C802        H807   1.083       .  S
C803        C804   1.418       .  A
C804        N805   1.433       .  S
N805        O809   1.262       .  A
N805        O810   1.262       .  A
N808        O811   1.262       .  A
N808        O812   1.262       .  A
C813        C814   1.401   1_545  A
C813        C818   1.403       .  A
C814        C815   1.417       .  A
C815        C816   1.406       .  A
C815        N822   1.446       .  S
C816        C817   1.408       .  A
C816        H821   1.083       .  S
C817        C818   1.415   1_565  A
C818        N819   1.436       .  S
N819        O824   1.261       .  A
N822        O826   1.263       .  A
C827        C828   1.411       .  A
C827        C832   1.405       .  A
C827        H834   1.083       .  S
C829        C830   1.400       .  A
C829        N836   1.433       .  S
C830        H835   1.084       .  S
C831        C832   1.413       .  A
C832        N833   1.441       .  S
N833        O837   1.263       .  A
N833        O838   1.263       .  A
N836        O839   1.263       .  A
N836        O840   1.262       .  A
O841       Zr853   2.438       .  S
O841        C843   1.288       .  A
O842       Zr879   2.424   1_554  S
O842       C1263   1.285   1_545  A
C843       O1262   1.285       .  A
C843       C1038   1.495       .  S
O844       Zr856   2.449       .  S
O845       Zr880   2.424       .  S
O845        C846   1.286       .  A
O847       Zr856   2.452       .  S
O847        C849   1.290       .  A
O848      Zr1089   2.416       .  S
O848       C1269   1.286   1_545  A
C849       O1268   1.286       .  A
C849       C1013   1.494       .  S
O850       Zr853   2.432       .  S
O851      Zr1090   2.434       .  S
O851        C852   1.289   1_655  A
Zr853       O854   2.434       .  S
Zr853       O855   2.435       .  S
Zr853       O859   2.371   1_554  S
Zr853       O860   2.371       .  S
Zr853      O1305   2.367       .  S
O854        H897   0.990       .  S
O855        H896   0.990       .  S
O855        H900   0.990       .  S
Zr856       O857   2.435       .  S
Zr856       O858   2.434       .  S
Zr856      O1070   2.369       .  S
Zr856      O1069   2.373       .  S
Zr856      O1304   2.371       .  S
O857        H898   0.990       .  S
O857        H901   0.990       .  S
O858        H891   0.990       .  S
O859      Zr1066   2.373       .  S
O859      Zr1299   2.378       .  S
O860      Zr1066   2.369   1_554  S
O860       H1097   0.966       .  S
O861       Zr873   2.438       .  S
O861        C863   1.287   1_545  A
O862      Zr1090   2.430       .  S
O862       C1283   1.287       .  A
C863       O1282   1.287       .  A
C863       C1444   1.471       .  S
O864       Zr876   2.452       .  S
O865      Zr1089   2.417       .  S
O865        C866   1.286       .  A
C866        C940   1.489       .  S
O867       Zr876   2.440       .  S
O867        C869   1.287   1_545  A
O868       Zr880   2.424       .  S
O868       C1289   1.286       .  A
C869       O1288   1.286       .  A
C869       C1419   1.469       .  S
O870       Zr873   2.441       .  S
O871       Zr879   2.425   1_554  S
O871        C872   1.286       .  A
C872        C968   1.468       .  S
Zr873       O874   2.435       .  S
Zr873       O875   2.434       .  S
Zr873      O1091   2.371       .  S
Zr873      O1092   2.372       .  S
Zr873      O1303   2.377   1_545  S
O874        H894   0.990       .  S
O874        H899   0.990       .  S
O875        H895   0.990       .  S
Zr876       O877   2.434       .  S
Zr876       O878   2.434       .  S
Zr876       O882   2.370       .  S
Zr876       O881   2.374       .  S
Zr876      O1306   2.375   1_545  S
O877        H893   0.990       .  S
O878        H892   0.989       .  S
O878        H902   0.990       .  S
Zr879      O1058   2.416       .  S
Zr879      O1075   2.417       .  S
Zr879      O1279   2.378   1_545  S
Zr879      O1094   2.382       .  S
Zr879       O885   2.381   1_556  S
Zr880      O1061   2.434       .  S
Zr880      O1072   2.430       .  S
Zr880      O1301   2.387       .  S
Zr880      O1093   2.382       .  S
Zr880       O886   2.384       .  S
O881      Zr1083   2.371       .  S
O881      Zr1300   2.387   1_545  S
O881        H889   0.966       .  S
O882      Zr1083   2.372       .  S
O883      Zr1293   2.377       .  S
O883      Zr1090   2.382       .  S
O884      Zr1276   2.371   1_545  S
O884      Zr1089   2.382       .  S
O884        H888   0.966       .  S
O885      Zr1273   2.367   1_545  S
O885        H890   0.965       .  S
O886      Zr1296   2.375       .  S
H887       O1070   0.966       .  S
C903        C982   1.475       .  S
C903        C904   1.397       .  A
C903        C908   1.400       .  A
C904        C905   1.404       .  A
C904        H909   1.082       .  S
C905        C971   1.499       .  S
C905        C906   1.410       .  A
C906        C907   1.414       .  A
C906        H910   1.079       .  S
C907        C916   1.510       .  S
C907        C908   1.412       .  A
C908        H911   1.079       .  S
C912        C957   1.476       .  S
C912        C913   1.398       .  A
C912        C917   1.402       .  A
C913        C914   1.403       .  A
C913        H918   1.083       .  S
C914        C943   1.494       .  S
C914        C915   1.408       .  A
C915        C916   1.414       .  A
C915        H919   1.080       .  S
C916        C917   1.412       .  A
C917        H920   1.079       .  S
C921       C1027   1.494       .  S
C921        C922   1.403       .  A
C921        C926   1.405       .  A
C922        C923   1.399       .  A
C922        H927   1.083       .  S
C923       C1041   1.482       .  S
C923        C924   1.402       .  A
C924        C925   1.412       .  A
C924        H928   1.078       .  S
C925        C934   1.511       .  S
C925        C926   1.413       .  A
C926        H929   1.077       .  S
C930        C996   1.499       .  S
C930        C931   1.405       .  A
C930        C935   1.406       .  A
C931        C932   1.402       .  A
C931        H936   1.081       .  S
C932       C1010   1.486       .  S
C932        C933   1.402       .  A
C933        C934   1.411       .  A
C933        H937   1.079       .  S
C934        C935   1.412       .  A
C935        H938   1.074       .  S
C939        C940   1.407       .  A
C939        C944   1.405       .  A
C939        H946   1.084       .  S
C941        C942   1.401       .  A
C941        N948   1.435       .  S
C942        H947   1.083       .  S
C943        C944   1.418       .  A
C944        N945   1.437       .  S
N945        O949   1.263       .  A
N945        O950   1.262       .  A
N948        O951   1.262       .  A
C953        C954   1.407       .  A
C953        C958   1.404       .  A
C953        H960   1.083       .  S
C955        C956   1.404       .  A
C955        N962   1.436       .  S
C956        H961   1.084       .  S
C957        C958   1.416       .  A
C958        N959   1.445       .  S
N959        O963   1.263       .  A
N959        O964   1.262       .  A
N962        O965   1.260       .  A
N962        O966   1.263       .  A
C967        C968   1.399       .  A
C967        C972   1.405       .  A
C967        H974   1.084       .  S
C968        C969   1.411       .  A
C969        C970   1.402       .  A
C969        N976   1.441       .  S
C970        C971   1.410       .  A
C970        H975   1.083       .  S
C971        C972   1.422       .  A
C972        N973   1.437       .  S
N973        O977   1.263       .  A
N976        O979   1.262       .  A
C981        C986   1.402       .  A
C981        H988   1.084       .  S
C982        C983   1.414       .  A
C983        C984   1.407       .  A
C983        N990   1.445       .  S
C984        C985   1.409       .  A
C984        H989   1.083       .  S
C986        N987   1.438       .  S
N987        O991   1.263       .  A
N987        O992   1.261       .  A
N990        O993   1.262       .  A
N990        O994   1.263       .  A
C995        C996   1.410       .  A
C995       C1000   1.408       .  A
C995       H1002   1.082       .  S
C996        C997   1.413       .  A
C997       C1418   1.398       .  A
C997       N1424   1.427       .  S
C998       C1417   1.398       .  A
C998       C1419   1.399   1_545  A
C998       H1003   1.085       .  S
C999       C1289   1.469       .  S
C999       C1418   1.399       .  A
C999       C1000   1.419       .  A
C1000      N1001   1.449       .  S
N1001      O1005   1.263       .  A
N1001      O1006   1.262       .  A
N1004      C1417   1.427       .  S
N1004      O1427   1.261       .  A
N1004      O1008   1.261       .  A
O1007      N1424   1.261       .  A
C1009      C1010   1.403       .  A
C1009      C1014   1.403       .  A
C1009      H1016   1.084       .  S
C1010      C1011   1.412       .  A
C1011      C1432   1.403       .  A
C1011      N1438   1.437       .  S
C1012      C1431   1.403       .  A
C1012      C1433   1.409   1_545  A
C1012      H1017   1.083       .  S
C1013      C1432   1.409       .  A
C1013      C1014   1.418       .  A
C1014      N1015   1.433       .  S
N1015      O1019   1.262       .  A
N1015      O1020   1.262       .  A
N1018      C1431   1.437       .  S
N1018      O1021   1.262       .  A
N1018      O1022   1.262       .  A
C1023      C1024   1.401       .  A
C1023      C1028   1.403       .  A
C1023      H1450   1.084       .  S
C1024      C1283   1.470       .  S
C1024      C1025   1.417       .  A
C1025      C1026   1.406       .  A
C1025      N1032   1.446       .  S
C1026      C1027   1.408       .  A
C1026      H1031   1.083       .  S
C1027      C1028   1.415       .  A
C1028      N1029   1.436       .  S
N1029      O1453   1.262       .  A
N1029      O1034   1.261       .  A
H1030      C1443   1.084       .  S
N1032      O1455   1.262       .  A
N1032      O1036   1.263       .  A
O1033      N1449   1.262       .  A
O1035      N1452   1.262       .  A
C1037      C1038   1.411       .  A
C1037      C1042   1.405       .  A
C1037      H1044   1.083       .  S
C1038      C1459   1.419       .  A
C1039      C1458   1.419   1_545  A
C1039      C1040   1.400       .  A
C1039      N1046   1.433       .  S
C1040      C1461   1.402   1_545  A
C1040      H1045   1.084       .  S
C1041      C1460   1.402       .  A
C1041      C1042   1.413       .  A
C1042      N1043   1.441       .  S
N1043      O1047   1.263       .  A
N1043      O1048   1.263       .  A
N1046      O1049   1.263       .  A
N1046      O1050   1.262       .  A
O1051     Zr1063   2.438       .  S
O1051      C1053   1.288       .  A
O1052     Zr1089   2.424       .  S
O1052      C1473   1.285   1_545  A
C1053      O1472   1.285       .  A
C1053      C1248   1.495       .  S
O1054     Zr1066   2.449       .  S
O1055     Zr1090   2.424   1_556  S
O1055      C1056   1.286       .  A
O1057     Zr1066   2.452       .  S
O1057      C1059   1.290       .  A
O1058      C1479   1.286   1_545  A
C1059      O1478   1.286       .  A
C1059      C1223   1.494       .  S
O1060     Zr1063   2.432       .  S
O1061      C1062   1.289   1_655  A
Zr1063     O1064   2.434       .  S
Zr1063     O1065   2.435       .  S
Zr1063     O1069   2.371       .  S
Zr1063     O1070   2.371       .  S
Zr1063     O1515   2.367       .  S
O1064      H1107   0.990       .  S
O1065      H1106   0.990       .  S
O1065      H1110   0.990       .  S
Zr1066     O1067   2.435       .  S
Zr1066     O1068   2.434       .  S
Zr1066     O1514   2.371       .  S
O1067      H1108   0.990       .  S
O1067      H1111   0.990       .  S
O1068      H1101   0.990       .  S
O1069     Zr1509   2.378       .  S
O1071     Zr1083   2.438       .  S
O1071      C1073   1.287   1_545  A
O1072      C1493   1.287       .  A
C1073      O1492   1.287       .  A
C1073      C1654   1.471       .  S
O1074     Zr1086   2.452       .  S
O1075      C1076   1.286       .  A
C1076      C1150   1.489       .  S
O1077     Zr1086   2.440       .  S
O1077      C1079   1.287   1_545  A
O1078     Zr1090   2.424   1_556  S
O1078      C1499   1.286       .  A
C1079      O1498   1.286       .  A
C1079      C1629   1.469       .  S
O1080     Zr1083   2.441       .  S
O1081     Zr1089   2.425       .  S
O1081      C1082   1.286       .  A
C1082      C1178   1.468       .  S
Zr1083     O1084   2.435       .  S
Zr1083     O1085   2.434       .  S
Zr1083     O1513   2.377   1_545  S
O1084      H1104   0.990       .  S
O1084      H1109   0.990       .  S
O1085      H1105   0.990       .  S
Zr1086     O1087   2.434       .  S
Zr1086     O1088   2.434       .  S
Zr1086     O1092   2.370   1_556  S
Zr1086     O1091   2.374   1_556  S
Zr1086     O1516   2.375   1_545  S
O1087      H1103   0.990       .  S
O1088      H1102   0.989       .  S
O1088      H1112   0.990       .  S
Zr1089     O1489   2.378   1_545  S
Zr1089     O1095   2.381       .  S
Zr1090     O1511   2.387       .  S
Zr1090     O1096   2.384   1_554  S
O1091     Zr1510   2.387   1_545  S
O1091      H1099   0.966       .  S
O1093     Zr1503   2.377       .  S
O1094     Zr1486   2.371   1_545  S
O1094      H1098   0.966       .  S
O1095     Zr1483   2.367   1_545  S
O1095      H1100   0.965       .  S
O1096     Zr1506   2.375       .  S
C1113      C1192   1.475       .  S
C1113      C1114   1.397       .  A
C1113      C1118   1.400       .  A
C1114      C1115   1.404       .  A
C1114      H1119   1.082       .  S
C1115      C1181   1.499       .  S
C1115      C1116   1.410       .  A
C1116      C1117   1.414       .  A
C1116      H1120   1.079       .  S
C1117      C1126   1.510       .  S
C1117      C1118   1.412       .  A
C1118      H1121   1.079       .  S
C1122      C1167   1.476       .  S
C1122      C1123   1.398       .  A
C1122      C1127   1.402       .  A
C1123      C1124   1.403       .  A
C1123      H1128   1.083       .  S
C1124      C1153   1.494       .  S
C1124      C1125   1.408       .  A
C1125      C1126   1.414       .  A
C1125      H1129   1.080       .  S
C1126      C1127   1.412       .  A
C1127      H1130   1.079       .  S
C1131      C1237   1.494       .  S
C1131      C1132   1.403       .  A
C1131      C1136   1.405       .  A
C1132      C1133   1.399       .  A
C1132      H1137   1.083       .  S
C1133      C1251   1.482       .  S
C1133      C1134   1.402       .  A
C1134      C1135   1.412       .  A
C1134      H1138   1.078       .  S
C1135      C1144   1.511       .  S
C1135      C1136   1.413       .  A
C1136      H1139   1.077       .  S
C1140      C1206   1.499       .  S
C1140      C1141   1.405       .  A
C1140      C1145   1.406       .  A
C1141      C1142   1.402       .  A
C1141      H1146   1.081       .  S
C1142      C1220   1.486       .  S
C1142      C1143   1.402       .  A
C1143      C1144   1.411       .  A
C1143      H1147   1.079       .  S
C1144      C1145   1.412       .  A
C1145      H1148   1.074       .  S
C1149      C1150   1.407       .  A
C1149      C1154   1.405       .  A
C1149      H1156   1.084       .  S
C1151      C1152   1.401       .  A
C1151      N1158   1.435       .  S
C1152      H1157   1.083       .  S
C1153      C1154   1.418       .  A
C1154      N1155   1.437       .  S
N1155      O1159   1.263       .  A
N1155      O1160   1.262       .  A
N1158      O1161   1.262       .  A
C1163      C1164   1.407       .  A
C1163      C1168   1.404       .  A
C1163      H1170   1.083       .  S
C1165      C1166   1.404       .  A
C1165      N1172   1.436       .  S
C1166      H1171   1.084       .  S
C1167      C1168   1.416       .  A
C1168      N1169   1.445       .  S
N1169      O1173   1.263       .  A
N1169      O1174   1.262       .  A
N1172      O1175   1.260       .  A
N1172      O1176   1.263       .  A
C1177      C1178   1.399       .  A
C1177      C1182   1.405       .  A
C1177      H1184   1.084       .  S
C1178      C1179   1.411       .  A
C1179      C1180   1.402       .  A
C1179      N1186   1.441       .  S
C1180      C1181   1.410       .  A
C1180      H1185   1.083       .  S
C1181      C1182   1.422       .  A
C1182      N1183   1.437       .  S
N1183      O1187   1.263       .  A
N1186      O1189   1.262       .  A
C1191      C1196   1.402       .  A
C1191      H1198   1.084       .  S
C1192      C1193   1.414       .  A
C1193      C1194   1.407       .  A
C1193      N1200   1.445       .  S
C1194      C1195   1.409       .  A
C1194      H1199   1.083       .  S
C1196      N1197   1.438       .  S
N1197      O1201   1.263       .  A
N1197      O1202   1.261       .  A
N1200      O1203   1.262       .  A
N1200      O1204   1.263       .  A
C1205      C1206   1.410       .  A
C1205      C1210   1.408       .  A
C1205      H1212   1.082       .  S
C1206      C1207   1.413       .  A
C1207      C1628   1.398       .  A
C1207      N1634   1.427       .  S
C1208      C1627   1.398       .  A
C1208      C1629   1.399   1_545  A
C1208      H1213   1.085       .  S
C1209      C1499   1.469       .  S
C1209      C1628   1.399       .  A
C1209      C1210   1.419       .  A
C1210      N1211   1.449       .  S
N1211      O1215   1.263       .  A
N1211      O1216   1.262       .  A
N1214      C1627   1.427       .  S
N1214      O1637   1.261       .  A
N1214      O1218   1.261       .  A
O1217      N1634   1.261       .  A
C1219      C1220   1.403       .  A
C1219      C1224   1.403       .  A
C1219      H1226   1.084       .  S
C1220      C1221   1.412       .  A
C1221      C1642   1.403       .  A
C1221      N1648   1.437       .  S
C1222      C1641   1.403       .  A
C1222      C1643   1.409   1_545  A
C1222      H1227   1.083       .  S
C1223      C1642   1.409       .  A
C1223      C1224   1.418       .  A
C1224      N1225   1.433       .  S
N1225      O1229   1.262       .  A
N1225      O1230   1.262       .  A
N1228      C1641   1.437       .  S
N1228      O1231   1.262       .  A
N1228      O1232   1.262       .  A
C1233      C1234   1.401       .  A
C1233      C1238   1.403       .  A
C1233      H1660   1.084       .  S
C1234      C1493   1.470       .  S
C1234      C1235   1.417       .  A
C1235      C1236   1.406       .  A
C1235      N1242   1.446       .  S
C1236      C1237   1.408       .  A
C1236      H1241   1.083       .  S
C1237      C1238   1.415       .  A
C1238      N1239   1.436       .  S
N1239      O1663   1.262       .  A
N1239      O1244   1.261       .  A
H1240      C1653   1.084       .  S
N1242      O1665   1.262       .  A
N1242      O1246   1.263       .  A
O1243      N1659   1.262       .  A
O1245      N1662   1.262       .  A
C1247      C1248   1.411       .  A
C1247      C1252   1.405       .  A
C1247      H1254   1.083       .  S
C1248      C1669   1.419       .  A
C1249      C1668   1.419   1_545  A
C1249      C1250   1.400       .  A
C1249      N1256   1.433       .  S
C1250      C1671   1.402   1_545  A
C1250      H1255   1.084       .  S
C1251      C1670   1.402       .  A
C1251      C1252   1.413       .  A
C1252      N1253   1.441       .  S
N1253      O1257   1.263       .  A
N1253      O1258   1.263       .  A
N1256      O1259   1.263       .  A
N1256      O1260   1.262       .  A
O1261     Zr1273   2.438       .  S
O1261      C1263   1.288       .  A
O1262     Zr1299   2.424   1_554  S
C1263      C1458   1.495       .  S
O1264     Zr1276   2.449       .  S
O1265     Zr1300   2.424       .  S
O1265      C1266   1.286       .  A
O1267     Zr1276   2.451       .  S
O1267      C1269   1.290       .  A
O1268     Zr1509   2.416       .  S
C1269      C1433   1.494       .  S
O1270     Zr1273   2.432       .  S
O1271     Zr1510   2.434       .  S
O1271      C1272   1.289   1_655  A
Zr1273     O1274   2.434       .  S
Zr1273     O1275   2.435       .  S
Zr1273     O1279   2.371   1_554  S
Zr1273     O1280   2.371       .  S
O1274      H1317   0.990       .  S
O1275      H1316   0.990       .  S
O1275      H1320   0.990       .  S
Zr1276     O1277   2.435       .  S
Zr1276     O1278   2.434       .  S
Zr1276     O1490   2.369       .  S
Zr1276     O1489   2.373       .  S
O1277      H1318   0.990       .  S
O1277      H1321   0.990       .  S
O1278      H1311   0.990       .  S
O1279     Zr1486   2.373       .  S
O1280     Zr1486   2.369   1_554  S
O1280      H1517   0.966       .  S
O1281     Zr1293   2.438       .  S
O1281      C1283   1.287       .  A
O1282     Zr1510   2.429       .  S
O1284     Zr1296   2.452       .  S
O1285     Zr1509   2.417       .  S
O1285      C1286   1.286       .  A
C1286      C1360   1.489       .  S
O1287     Zr1296   2.441       .  S
O1287      C1289   1.287       .  A
O1288     Zr1300   2.424       .  S
O1290     Zr1293   2.440       .  S
O1291     Zr1299   2.425   1_554  S
O1291      C1292   1.286       .  A
C1292      C1388   1.468       .  S
Zr1293     O1294   2.435       .  S
Zr1293     O1295   2.434       .  S
Zr1293     O1511   2.371       .  S
Zr1293     O1512   2.372       .  S
O1294      H1314   0.990       .  S
O1294      H1319   0.990       .  S
O1295      H1315   0.990       .  S
Zr1296     O1297   2.434       .  S
Zr1296     O1298   2.434       .  S
Zr1296     O1302   2.370       .  S
Zr1296     O1301   2.374       .  S
O1297      H1313   0.990       .  S
O1298      H1312   0.989       .  S
O1298      H1322   0.990       .  S
Zr1299     O1478   2.416       .  S
Zr1299     O1495   2.417       .  S
Zr1299     O1514   2.382       .  S
Zr1299     O1305   2.381   1_556  S
Zr1300     O1481   2.434       .  S
Zr1300     O1492   2.429       .  S
Zr1300     O1513   2.382       .  S
Zr1300     O1306   2.384       .  S
O1301     Zr1503   2.371       .  S
O1301      H1309   0.966       .  S
O1302     Zr1503   2.372       .  S
O1303     Zr1510   2.382       .  S
O1304     Zr1509   2.382       .  S
O1304      H1308   0.966       .  S
O1305      H1310   0.965       .  S
H1307      O1490   0.966       .  S
C1323      C1402   1.475       .  S
C1323      C1324   1.397       .  A
C1323      C1328   1.400       .  A
C1324      C1325   1.404       .  A
C1324      H1329   1.082       .  S
C1325      C1391   1.499       .  S
C1325      C1326   1.410       .  A
C1326      C1327   1.414       .  A
C1326      H1330   1.079       .  S
C1327      C1336   1.510       .  S
C1327      C1328   1.412       .  A
C1328      H1331   1.079       .  S
C1332      C1377   1.476       .  S
C1332      C1333   1.398       .  A
C1332      C1337   1.402       .  A
C1333      C1334   1.403       .  A
C1333      H1338   1.083       .  S
C1334      C1363   1.494       .  S
C1334      C1335   1.408       .  A
C1335      C1336   1.414       .  A
C1335      H1339   1.080       .  S
C1336      C1337   1.412       .  A
C1337      H1340   1.079       .  S
C1341      C1447   1.494       .  S
C1341      C1342   1.403       .  A
C1341      C1346   1.405   1_565  A
C1342      C1343   1.399       .  A
C1342      H1347   1.083       .  S
C1343      C1461   1.482       .  S
C1343      C1344   1.402       .  A
C1344      C1345   1.412       .  A
C1344      H1348   1.078       .  S
C1345      C1354   1.510       .  S
C1345      C1346   1.413   1_565  A
C1346      H1349   1.077       .  S
C1350      C1416   1.499       .  S
C1350      C1351   1.405       .  A
C1350      C1355   1.406       .  A
C1351      C1352   1.402       .  A
C1351      H1356   1.081       .  S
C1352      C1430   1.486       .  S
C1352      C1353   1.403       .  A
C1353      C1354   1.411       .  A
C1353      H1357   1.079   1_565  S
C1354      C1355   1.412       .  A
C1355      H1358   1.074       .  S
C1359      C1360   1.407       .  A
C1359      C1364   1.405       .  A
C1359      H1366   1.084       .  S
C1361      C1362   1.401       .  A
C1361      N1368   1.435       .  S
C1362      H1367   1.083       .  S
C1363      C1364   1.418       .  A
C1364      N1365   1.437       .  S
N1365      O1369   1.263       .  A
N1365      O1370   1.262       .  A
N1368      O1371   1.262       .  A
C1373      C1374   1.407       .  A
C1373      C1378   1.404       .  A
C1373      H1380   1.083       .  S
C1375      C1376   1.404       .  A
C1375      N1382   1.436       .  S
C1376      H1381   1.084       .  S
C1377      C1378   1.416       .  A
C1378      N1379   1.445       .  S
N1379      O1383   1.263       .  A
N1379      O1384   1.262       .  A
N1382      O1385   1.260       .  A
N1382      O1386   1.263       .  A
C1387      C1388   1.399       .  A
C1387      C1392   1.405       .  A
C1387      H1394   1.084       .  S
C1388      C1389   1.411       .  A
C1389      C1390   1.402       .  A
C1389      N1396   1.441       .  S
C1390      C1391   1.410       .  A
C1390      H1395   1.083       .  S
C1391      C1392   1.422       .  A
C1392      N1393   1.437       .  S
N1393      O1397   1.263       .  A
N1396      O1399   1.262       .  A
C1401      C1406   1.402       .  A
C1401      H1408   1.084       .  S
C1402      C1403   1.414       .  A
C1403      C1404   1.407       .  A
C1403      N1410   1.445       .  S
C1404      C1405   1.409       .  A
C1404      H1409   1.083       .  S
C1406      N1407   1.438       .  S
N1407      O1411   1.263       .  A
N1407      O1412   1.261       .  A
N1410      O1413   1.262       .  A
N1410      O1414   1.263       .  A
C1415      C1416   1.409       .  A
C1415      C1420   1.408       .  A
C1415      H1422   1.082       .  S
C1416      C1417   1.413   1_565  A
C1418      H1423   1.085       .  S
C1419      C1420   1.419       .  A
C1420      N1421   1.449       .  S
N1421      O1425   1.263       .  A
N1421      O1426   1.262       .  A
N1424      O1428   1.261       .  A
C1429      C1430   1.403       .  A
C1429      C1434   1.403       .  A
C1429      H1436   1.084       .  S
C1430      C1431   1.412   1_565  A
C1432      H1437   1.083       .  S
C1433      C1434   1.418       .  A
C1434      N1435   1.433       .  S
N1435      O1439   1.262       .  A
N1435      O1440   1.262       .  A
N1438      O1441   1.262       .  A
N1438      O1442   1.262       .  A
C1443      C1444   1.401   1_545  A
C1443      C1448   1.403       .  A
C1444      C1445   1.417       .  A
C1445      C1446   1.406       .  A
C1445      N1452   1.446       .  S
C1446      C1447   1.408       .  A
C1446      H1451   1.083       .  S
C1447      C1448   1.415   1_565  A
C1448      N1449   1.436       .  S
N1449      O1454   1.261       .  A
N1452      O1456   1.263       .  A
C1457      C1458   1.411       .  A
C1457      C1462   1.405       .  A
C1457      H1464   1.083       .  S
C1459      C1460   1.400       .  A
C1459      N1466   1.433       .  S
C1460      H1465   1.084       .  S
C1461      C1462   1.413       .  A
C1462      N1463   1.441       .  S
N1463      O1467   1.263       .  A
N1463      O1468   1.263       .  A
N1466      O1469   1.263       .  A
N1466      O1470   1.262       .  A
O1471     Zr1483   2.438       .  S
O1471      C1473   1.288       .  A
O1472     Zr1509   2.424       .  S
C1473      C1668   1.495       .  S
O1474     Zr1486   2.449       .  S
O1475     Zr1510   2.424   1_556  S
O1475      C1476   1.286       .  A
O1477     Zr1486   2.451       .  S
O1477      C1479   1.290       .  A
C1479      C1643   1.494       .  S
O1480     Zr1483   2.432       .  S
O1481      C1482   1.289   1_655  A
Zr1483     O1484   2.434       .  S
Zr1483     O1485   2.435       .  S
Zr1483     O1489   2.371       .  S
Zr1483     O1490   2.371       .  S
O1484      H1527   0.990       .  S
O1485      H1526   0.990       .  S
O1485      H1530   0.990       .  S
Zr1486     O1487   2.435       .  S
Zr1486     O1488   2.434       .  S
O1487      H1528   0.990       .  S
O1487      H1531   0.990       .  S
O1488      H1521   0.990       .  S
O1491     Zr1503   2.438       .  S
O1491      C1493   1.287       .  A
O1494     Zr1506   2.452       .  S
O1495      C1496   1.286       .  A
C1496      C1570   1.489       .  S
O1497     Zr1506   2.441       .  S
O1497      C1499   1.287       .  A
O1498     Zr1510   2.424   1_556  S
O1500     Zr1503   2.440       .  S
O1501     Zr1509   2.425       .  S
O1501      C1502   1.286       .  A
C1502      C1598   1.468       .  S
Zr1503     O1504   2.435       .  S
Zr1503     O1505   2.434       .  S
O1504      H1524   0.990       .  S
O1504      H1529   0.990       .  S
O1505      H1525   0.990       .  S
Zr1506     O1507   2.434       .  S
Zr1506     O1508   2.434       .  S
Zr1506     O1512   2.370   1_556  S
Zr1506     O1511   2.374   1_556  S
O1507      H1523   0.990       .  S
O1508      H1522   0.989       .  S
O1508      H1532   0.990       .  S
Zr1509     O1515   2.381       .  S
Zr1510     O1516   2.384   1_554  S
O1511      H1519   0.966       .  S
O1514      H1518   0.966       .  S
O1515      H1520   0.965       .  S
C1533      C1612   1.475       .  S
C1533      C1534   1.397       .  A
C1533      C1538   1.400       .  A
C1534      C1535   1.404       .  A
C1534      H1539   1.082       .  S
C1535      C1601   1.499       .  S
C1535      C1536   1.410       .  A
C1536      C1537   1.414       .  A
C1536      H1540   1.079       .  S
C1537      C1546   1.510       .  S
C1537      C1538   1.412       .  A
C1538      H1541   1.079       .  S
C1542      C1587   1.476       .  S
C1542      C1543   1.398       .  A
C1542      C1547   1.402       .  A
C1543      C1544   1.403       .  A
C1543      H1548   1.083       .  S
C1544      C1573   1.494       .  S
C1544      C1545   1.408       .  A
C1545      C1546   1.414       .  A
C1545      H1549   1.080       .  S
C1546      C1547   1.412       .  A
C1547      H1550   1.079       .  S
C1551      C1657   1.494       .  S
C1551      C1552   1.403       .  A
C1551      C1556   1.405   1_565  A
C1552      C1553   1.399       .  A
C1552      H1557   1.083       .  S
C1553      C1671   1.482       .  S
C1553      C1554   1.402       .  A
C1554      C1555   1.412       .  A
C1554      H1558   1.078       .  S
C1555      C1564   1.510       .  S
C1555      C1556   1.413   1_565  A
C1556      H1559   1.077       .  S
C1560      C1626   1.499       .  S
C1560      C1561   1.405       .  A
C1560      C1565   1.406       .  A
C1561      C1562   1.402       .  A
C1561      H1566   1.081       .  S
C1562      C1640   1.486       .  S
C1562      C1563   1.403       .  A
C1563      C1564   1.411       .  A
C1563      H1567   1.079   1_565  S
C1564      C1565   1.412       .  A
C1565      H1568   1.074       .  S
C1569      C1570   1.407       .  A
C1569      C1574   1.405       .  A
C1569      H1576   1.084       .  S
C1571      C1572   1.401       .  A
C1571      N1578   1.435       .  S
C1572      H1577   1.083       .  S
C1573      C1574   1.418       .  A
C1574      N1575   1.437       .  S
N1575      O1579   1.263       .  A
N1575      O1580   1.262       .  A
N1578      O1581   1.262       .  A
C1583      C1584   1.407       .  A
C1583      C1588   1.404       .  A
C1583      H1590   1.083       .  S
C1585      C1586   1.404       .  A
C1585      N1592   1.436       .  S
C1586      H1591   1.084       .  S
C1587      C1588   1.416       .  A
C1588      N1589   1.445       .  S
N1589      O1593   1.263       .  A
N1589      O1594   1.262       .  A
N1592      O1595   1.260       .  A
N1592      O1596   1.263       .  A
C1597      C1598   1.399       .  A
C1597      C1602   1.405       .  A
C1597      H1604   1.084       .  S
C1598      C1599   1.411       .  A
C1599      C1600   1.402       .  A
C1599      N1606   1.441       .  S
C1600      C1601   1.410       .  A
C1600      H1605   1.083       .  S
C1601      C1602   1.422       .  A
C1602      N1603   1.437       .  S
N1603      O1607   1.263       .  A
N1606      O1609   1.262       .  A
C1611      C1616   1.402       .  A
C1611      H1618   1.084       .  S
C1612      C1613   1.414       .  A
C1613      C1614   1.407       .  A
C1613      N1620   1.445       .  S
C1614      C1615   1.409       .  A
C1614      H1619   1.083       .  S
C1616      N1617   1.438       .  S
N1617      O1621   1.263       .  A
N1617      O1622   1.261       .  A
N1620      O1623   1.262       .  A
N1620      O1624   1.263       .  A
C1625      C1626   1.409       .  A
C1625      C1630   1.408       .  A
C1625      H1632   1.082       .  S
C1626      C1627   1.413   1_565  A
C1628      H1633   1.085       .  S
C1629      C1630   1.419       .  A
C1630      N1631   1.449       .  S
N1631      O1635   1.263       .  A
N1631      O1636   1.262       .  A
N1634      O1638   1.261       .  A
C1639      C1640   1.403       .  A
C1639      C1644   1.403       .  A
C1639      H1646   1.084       .  S
C1640      C1641   1.412   1_565  A
C1642      H1647   1.083       .  S
C1643      C1644   1.418       .  A
C1644      N1645   1.433       .  S
N1645      O1649   1.262       .  A
N1645      O1650   1.262       .  A
N1648      O1651   1.262       .  A
N1648      O1652   1.262       .  A
C1653      C1654   1.401   1_545  A
C1653      C1658   1.403       .  A
C1654      C1655   1.417       .  A
C1655      C1656   1.406       .  A
C1655      N1662   1.446       .  S
C1656      C1657   1.408       .  A
C1656      H1661   1.083       .  S
C1657      C1658   1.415   1_565  A
C1658      N1659   1.436       .  S
N1659      O1664   1.261       .  A
N1662      O1666   1.263       .  A
C1667      C1668   1.411       .  A
C1667      C1672   1.405       .  A
C1667      H1674   1.083       .  S
C1669      C1670   1.400       .  A
C1669      N1676   1.433       .  S
C1670      H1675   1.084       .  S
C1671      C1672   1.413       .  A
C1672      N1673   1.441       .  S
N1673      O1677   1.263       .  A
N1673      O1678   1.263       .  A
N1676      O1679   1.263       .  A
N1676      O1680   1.262       .  A
