geometry optimzed in LAMMPS
_audit_creation_date              2020-12-01 
_audit_creation_method            'lammps2cif' 
_symmetry_space_group_name_H-M    'P1' 
_symmetry_Int_Tables_number       1 
_symmetry_cell_setting            triclinic 
loop_ 
_symmetry_equiv_pos_as_xyz 
  x,y,z 
_cell_length_a                    107.57818107 
_cell_length_b                    106.48136274545067 
_cell_length_c                    26.550234956285863 
_cell_angle_alpha                 90.00250951811196 
_cell_angle_beta                  90.04310620481809 
_cell_angle_gamma                 125.72967158646674 
loop_ 
_atom_site_label 
_atom_site_type_symbol 
_atom_site_fract_x 
_atom_site_fract_y 
_atom_site_fract_z 
_atom_site_charge 
O1          O  0.48526102  0.49633531  0.49082100    -0.71500
O2          O  0.50921314  0.49074363  0.38903938    -0.72500
O3          O  0.50849890  0.49133124  0.49566097    -0.61100
O4          O  0.48603431  0.49551592  0.38545105    -0.69500
O5          O  0.50343635  0.52090268  0.38440618    -0.69000
O6          O  0.52643593  0.51658354  0.49442661    -0.60300
O7          O  0.52674493  0.51608080  0.38723946    -0.72800
O8          O  0.50318538  0.52166822  0.49095182    -0.71600
Cu9        Cu  0.49667962  0.49262413  0.44042554     1.04600
Cu10       Cu  0.51560589  0.51970765  0.43932632     1.04300
C11         C  0.49026314  0.50989918  0.50614684     0.94700
C12         C  0.52166097  0.50255904  0.37119098     0.93900
C13         C  0.52111249  0.50318364  0.51233999     0.86000
C14         C  0.49098004  0.50879705  0.36771890     0.92300
N15         N  0.89378670  0.43319208  0.12719890    -0.25800
N16         N  0.90345855  0.43194681  0.10111448    -0.33700
C17         C  0.91577170  0.43666587  0.12968926     0.02500
C18         C  0.91386515  0.44123447  0.17619148     0.08500
C19         C  0.89970843  0.43877135  0.17320814    -0.04600
H20         H  0.92568553  0.43735601  0.11646134     0.09200
H21         H  0.89451363  0.44173804  0.20113564     0.10400
Cu22       Cu  0.90118246  0.42745423  0.02485092     0.44200
Cu23       Cu  0.87394155  0.42892837  0.09625465     0.42000
Cu24       Cu  0.87316644  0.43003541  0.95942320     0.43900
N25         N  0.90210106  0.43190890  0.94886527    -0.33200
N26         N  0.89244840  0.43371178  0.92507762    -0.27500
C27         C  0.89799706  0.43935838  0.87873593    -0.03600
C28         C  0.91187319  0.44130662  0.87332332     0.08700
C29         C  0.91395335  0.43629055  0.91853178     0.02500
H30         H  0.89280547  0.44275929  0.85231110     0.10100
H31         H  0.92375775  0.43650723  0.92989245     0.09200
N32         N  0.85498523  0.42474788  0.00530090    -0.34700
N33         N  0.85522727  0.42409784  0.05496412    -0.26800
C34         C  0.84143318  0.41926394  0.07309013    -0.02100
C35         C  0.83192711  0.41675613  0.03304013     0.06500
C36         C  0.84103971  0.42046091  0.99062633     0.04600
H37         H  0.83844236  0.41714238  0.11259879     0.09700
H38         H  0.83782208  0.41996608  0.95167151     0.08600
N39         N  0.58076665  0.47465158  0.03888611    -0.25800
N40         N  0.58290489  0.48648932  0.01386887    -0.33700
C41         C  0.57907871  0.49398111  0.04339349     0.02500
C42         C  0.57421120  0.48651643  0.08949151     0.08500
C43         C  0.57555820  0.47435090  0.08531949    -0.04600
H44         H  0.57930068  0.50379573  0.03128251     0.09200
H45         H  0.57216466  0.46540891  0.11287343     0.10400
Cu46       Cu  0.58804445  0.49029310  0.93798606     0.44200
Cu47       Cu  0.58371609  0.45880021  0.00589065     0.42000
Cu48       Cu  0.58689283  0.46081108  0.86816814     0.43900
N49         N  0.58525787  0.48789717  0.86081218    -0.33200
N50         N  0.58378387  0.47648284  0.83514790    -0.27500
C51         C  0.57877151  0.47627014  0.78843403    -0.03600
C52         C  0.57694957  0.48813789  0.78456843     0.08700
C53         C  0.58144530  0.49536314  0.83121713     0.02500
H54         H  0.57562794  0.46741547  0.76080130     0.10100
H55         H  0.58120195  0.50482752  0.84413908     0.09200
N56         N  0.59040115  0.44712675  0.91295982    -0.34700
N57         N  0.58878290  0.44601048  0.96252554    -0.26800
C58         C  0.59231623  0.43655550  0.97966787    -0.02100
C59         C  0.59655049  0.43165037  0.93913082     0.06500
C60         C  0.59521535  0.43860125  0.89748019     0.04600
H61         H  0.59256461  0.43408664  0.01904512     0.09700
H62         H  0.59782469  0.43776221  0.85878035     0.08600
N63         N  0.63772654  0.31183734  0.02295742    -0.25800
N64         N  0.64916493  0.31140772  0.03814174    -0.33700
C65         C  0.64409757  0.29656659  0.04313088     0.02500
C66         C  0.62870778  0.28716879  0.03025969     0.08500
C67         C  0.62507935  0.29730643  0.01784714    -0.04600
H68         H  0.65121080  0.29293931  0.05466192     0.09200
H69         H  0.61420671  0.29439125  0.00410903     0.10400
Cu70       Cu  0.67140503  0.33100937  0.04642907     0.44200
Cu71       Cu  0.64008526  0.33211005  0.00688734     0.42000
Cu72       Cu  0.67858009  0.36756904  0.00829769     0.43900
N73         N  0.69304991  0.35170751  0.04212694    -0.33200
N74         N  0.69578958  0.36494992  0.02719390    -0.27500
C75         C  0.71105259  0.37576690  0.02583072    -0.03600
C76         C  0.71830254  0.36902196  0.04062921     0.08700
C77         C  0.70643090  0.35374606  0.05079862     0.02500
H78         H  0.71642475  0.38752997  0.01349072     0.10100
H79         H  0.70735233  0.34468179  0.06337399     0.09200
N80         N  0.65902744  0.36670850  0.99360227    -0.34700
N81         N  0.64505544  0.35369312  0.99293801    -0.26800
C82         C  0.63492570  0.35691261  0.98347129    -0.02100
C83         C  0.64281153  0.37275302  0.97795674     0.06500
C84         C  0.65810193  0.37859154  0.98469170     0.04600
H85         H  0.62261987  0.34830590  0.98222359     0.09700
H86         H  0.66788136  0.39060961  0.98319785     0.08600
N87         N  0.51947556  0.10523912  0.91281628    -0.25800
N88         N  0.50960974  0.09243521  0.93804381    -0.33700
C89         C  0.50407287  0.08024627  0.90735909     0.02500
C90         C  0.51095122  0.08556231  0.86062496     0.08500
C91         C  0.52055146  0.10151647  0.86542823    -0.04600
H92         H  0.49631546  0.06835966  0.91940415     0.09200
H93         H  0.52865673  0.10974962  0.83792930     0.10400
Cu94       Cu  0.50694238  0.09136011  0.01544120     0.44200
Cu95       Cu  0.53277914  0.12685339  0.94585692     0.42000
Cu96       Cu  0.53514100  0.12609098  0.08167755     0.43900
N97         N  0.51151608  0.09181772  0.09141636    -0.33200
N98         N  0.52234610  0.10450876  0.11515968    -0.27500
C99         C  0.52431421  0.10072712  0.16125749    -0.03600
C100        C  0.51422963  0.08480818  0.16710004     0.08700
C101        C  0.50620970  0.07960320  0.12190409     0.02500
H102        H  0.53316780  0.10891871  0.18709573     0.10100
H103        H  0.49759840  0.06779873  0.11081758     0.09200
N104        N  0.54641822  0.14618573  0.03950206    -0.34700
N105        N  0.54540232  0.14648341  0.98996771    -0.26800
C106        C  0.55373702  0.16126559  0.97441117    -0.02100
C107        C  0.56036408  0.17073109  0.01619390     0.06500
C108        C  0.55549060  0.16076715  0.05679365     0.04600
H109        H  0.55498312  0.16482341  0.93544106     0.09700
H110        H  0.55807388  0.16386026  0.09621265     0.08600
O111        O  0.50195542  0.00969637  0.57134368    -0.71500
O112        O  0.50480356  0.98381440  0.46989439    -0.72500
O113        O  0.50402776  0.98437147  0.57622212    -0.61100
O114        O  0.50284031  0.00928394  0.46503037    -0.69500
O115        O  0.52811267  0.02544868  0.46722970    -0.69000
O116        O  0.52930116  0.00061859  0.57834693    -0.60300
O117        O  0.53010247  0.00001647  0.47193839    -0.72800
O118        O  0.52725477  0.02597292  0.57342388    -0.71600
Cu119      Cu  0.50252955  0.99622441  0.52053579     1.04600
Cu120      Cu  0.52956768  0.01357041  0.52278591     1.04300
C121        C  0.51413287  0.02199362  0.58831950     0.94700
C122        C  0.51789774  0.98772798  0.45497779     0.93900
C123        C  0.51685985  0.98850374  0.59489275     0.86000
C124        C  0.51530869  0.02144100  0.44873571     0.92300
O125        O  0.99791898  0.49587355  0.58163889    -0.71500
O126        O  0.02967611  0.51971937  0.47526609    -0.72500
O127        O  0.02967205  0.52039122  0.58120629    -0.61100
O128        O  0.99800302  0.49534935  0.47486820    -0.69500
O129        O  0.99257946  0.51244249  0.47261737    -0.69000
O130        O  0.02409231  0.53737857  0.57989425    -0.60300
O131        O  0.02447176  0.53700327  0.47352810    -0.72800
O132        O  0.99220672  0.51273984  0.57985931    -0.71600
Cu133      Cu  0.01396806  0.50723276  0.52836930     1.04600
Cu134      Cu  0.00811081  0.52547141  0.52644443     1.04300
C135        C  0.98997687  0.50042134  0.59774277     0.94700
C136        C  0.03228208  0.53222991  0.45790420     0.93900
C137        C  0.03211426  0.53300383  0.59682324     0.86000
C138        C  0.99034595  0.49996724  0.45641695     0.92300
N139        N  0.42234796  0.52803361  0.83102089    -0.25800
N140        N  0.42423504  0.51813592  0.85312665    -0.33700
C141        C  0.42893256  0.51250598  0.81881699     0.02500
C142        C  0.43014612  0.51919485  0.77273962     0.08500
C143        C  0.42584454  0.52897922  0.78187967    -0.04600
H144        H  0.43227762  0.50495278  0.82763687     0.09200
H145        H  0.42577238  0.53663421  0.75533745     0.10400
Cu146      Cu  0.42304685  0.51450713  0.92983946     0.44200
Cu147      Cu  0.41671788  0.54096337  0.86979190     0.42000
Cu148      Cu  0.41809529  0.53886808  0.00613843     0.43900
N149        N  0.42587863  0.51610480  0.00695974    -0.33200
N150        N  0.42441521  0.52540083  0.03499945    -0.27500
C151        C  0.42876067  0.52530668  0.08232438    -0.03600
C152        C  0.43324128  0.51548573  0.08416490     0.08700
C153        C  0.43117697  0.50979498  0.03562716     0.02500
H154        H  0.42949715  0.53260087  0.11228282     0.10100
H155        H  0.43386773  0.50212621  0.02151101     0.09200
N156        N  0.41177999  0.55128311  0.96866462    -0.34700
N157        N  0.41141825  0.55227363  0.91916813    -0.26800
C158        C  0.40696886  0.56139103  0.90764995    -0.02100
C159        C  0.40435044  0.56634321  0.95213736     0.06500
C160        C  0.40748391  0.55960864  0.98995366     0.04600
H161        H  0.40596155  0.56433153  0.86960683     0.09700
H162        H  0.40649744  0.56041439  0.03015956     0.08600
N163        N  0.37674674  0.69785731  0.02118520    -0.25800
N164        N  0.36588777  0.69922204  0.03607046    -0.33700
C165        C  0.37166311  0.71427883  0.03972687     0.02500
C166        C  0.38699103  0.72287902  0.02669358     0.08500
C167        C  0.38979211  0.71204615  0.01501111    -0.04600
H168        H  0.36522919  0.71858232  0.05236020     0.09200
H169        H  0.40051842  0.71425504  0.00296521     0.10400
Cu170      Cu  0.34388524  0.68051875  0.05091457     0.44200
Cu171      Cu  0.37324443  0.67668787  0.01251749     0.42000
Cu172      Cu  0.33513258  0.64222820  0.04299677     0.43900
N173        N  0.32213910  0.66043660  0.05556954    -0.33200
N174        N  0.31871915  0.64636846  0.05212938    -0.27500
C175        C  0.30339009  0.63606107  0.05137981    -0.03600
C176        C  0.29693627  0.64412286  0.05457410     0.08700
C177        C  0.30919253  0.65952552  0.05724328     0.02500
H178        H  0.29746378  0.62371340  0.04756549     0.10100
H179        H  0.30880421  0.66943026  0.05743125     0.09200
N180        N  0.35367971  0.64195766  0.02485079    -0.34700
N181        N  0.36728675  0.65435533  0.01205628    -0.26800
C182        C  0.37641574  0.65006095  0.99996244    -0.02100
C183        C  0.36825026  0.63415747  0.00573242     0.06500
C184        C  0.35385834  0.62947851  0.02176605     0.04600
H185        H  0.38809080  0.65804609  0.98697907     0.09700
H186        H  0.34413529  0.61786538  0.03107840     0.08600
N187        N  0.12885003  0.59651801  0.92544719    -0.25800
N188        N  0.11893009  0.59769886  0.95017056    -0.33700
C189        C  0.10738320  0.59396810  0.91927062     0.02500
C190        C  0.10997721  0.59001995  0.87276139     0.08500
C191        C  0.12380987  0.59191027  0.87800827    -0.04600
H192        H  0.09747252  0.59352222  0.93087176     0.09200
H193        H  0.12935190  0.58921342  0.85046169     0.10400
Cu194      Cu  0.11956196  0.60105293  0.02691837     0.44200
Cu195      Cu  0.14793013  0.59996498  0.95940155     0.42000
Cu196      Cu  0.14989568  0.60526220  0.09687995     0.43900
N197        N  0.11864460  0.59802678  0.10392301    -0.33200
N198        N  0.12973811  0.59929567  0.13023745    -0.27500
C199        C  0.12476566  0.59433164  0.17752781    -0.03600
C200        C  0.10972672  0.58958293  0.18089785     0.08700
C201        C  0.10632938  0.59223418  0.13348678     0.02500
H202        H  0.13124739  0.59324613  0.20614853     0.10100
H203        H  0.09545361  0.58951560  0.12050006     0.09200
N204        N  0.16723633  0.60807868  0.05283612    -0.34700
N205        N  0.16635799  0.60563069  0.00372648    -0.26800
C206        C  0.17933444  0.60775579  0.98802169    -0.02100
C207        C  0.18888935  0.61177933  0.02919604     0.06500
C208        C  0.18082244  0.61194173  0.06953311     0.04600
H209        H  0.18147123  0.60621911  0.94946202     0.09700
H210        H  0.18451272  0.61475230  0.10835606     0.08600
N211        N  0.50842577  0.90387734  0.92340367    -0.25800
N212        N  0.51918144  0.91640857  0.94807787    -0.33700
C213        C  0.52497892  0.92880125  0.91815833     0.02500
C214        C  0.51740776  0.92394456  0.87233789     0.08500
C215        C  0.50706271  0.90800903  0.87694982    -0.04600
H216        H  0.53347180  0.94055877  0.93018167     0.09200
H217        H  0.49838593  0.90014023  0.85003876     0.10400
Cu218      Cu  0.52289382  0.91695814  0.02447454     0.44200
Cu219      Cu  0.49464997  0.88224575  0.95709412     0.42000
Cu220      Cu  0.49507247  0.88257990  0.09392026     0.43900
N221        N  0.51967931  0.91670869  0.10110711    -0.33200
N222        N  0.50927980  0.90417519  0.12648012    -0.27500
C223        C  0.50843666  0.90824677  0.17354383    -0.03600
C224        C  0.51871947  0.92414833  0.17787041     0.08700
C225        C  0.52569442  0.92911118  0.13120747     0.02500
H226        H  0.50015148  0.90034290  0.20127143     0.10100
H227        H  0.53395724  0.94090761  0.11906599     0.09200
N228        N  0.48160532  0.86275085  0.05122760    -0.34700
N229        N  0.48165136  0.86255116  0.00143034    -0.26800
C230        C  0.47175836  0.84788438  0.98556953    -0.02100
C231        C  0.46508081  0.83844799  0.02737975     0.06500
C232        C  0.47158459  0.84827007  0.06834894     0.04600
H233        H  0.46936167  0.84440471  0.94642712     0.09700
H234        H  0.46932089  0.84512873  0.10781797     0.08600
C235        C  0.42978240  0.79880483  0.06155155     0.14100
C236        C  0.43099720  0.78930345  0.02836412     0.01100
C237        C  0.44343481  0.79600416  0.99497942     0.16100
C238        C  0.45451199  0.81199762  0.99465172     0.25500
C239        C  0.45337923  0.82154343  0.02798544    -0.40800
C240        C  0.44095234  0.81481157  0.06162241     0.32500
C241        C  0.41955160  0.77234954  0.02920913     0.01200
F242        F  0.44479035  0.78701827  0.96248458    -0.13100
F243        F  0.43942597  0.82374904  0.09375657    -0.13700
C244        C  0.40419752  0.76566233  0.01669765     0.16100
C245        C  0.39355688  0.74956319  0.01582749     0.25500
C246        C  0.39813686  0.73991692  0.02764797    -0.40800
C247        C  0.41349813  0.74671558  0.04092467     0.32500
C248        C  0.42408782  0.76277219  0.04161222     0.14200
F249        F  0.39961236  0.77472886  0.00403859    -0.13100
F250        F  0.41823405  0.73787057  0.05476065    -0.13700
F251        F  0.37892257  0.74346079  0.00183147    -0.15900
F252        F  0.43878925  0.76901987  0.05516489    -0.14500
F253        F  0.41790715  0.79253894  0.09440013    -0.14500
F254        F  0.46658796  0.81809704  0.96275361    -0.15900
C255        C  0.22441124  0.61615364  0.07681296     0.14100
C256        C  0.23417701  0.62284708  0.03519578     0.01100
C257        C  0.22890649  0.62531617  0.99061190     0.16100
C258        C  0.21410241  0.62155538  0.98819947     0.25500
C259        C  0.20432295  0.61512259  0.03038739    -0.40800
C260        C  0.20958208  0.61220527  0.07440948     0.32500
C261        C  0.25016043  0.62810038  0.03976821     0.01200
F262        F  0.23831870  0.63193778  0.95014925    -0.13100
F263        F  0.20035790  0.60532963  0.11509756    -0.13700
C264        C  0.25537468  0.62056318  0.01364475     0.16100
C265        C  0.27052964  0.62549011  0.01923504     0.25500
C266        C  0.28065125  0.63809830  0.05087058    -0.40800
C267        C  0.27528374  0.64553265  0.07714797     0.32500
C268        C  0.26017479  0.64058007  0.07151801     0.14200
F269        F  0.24576063  0.60841370  0.98294915    -0.13100
F270        F  0.28458532  0.65746810  0.10896340    -0.13700
F271        F  0.27539237  0.61827714  0.99237145    -0.15900
F272        F  0.25531230  0.64807082  0.09670325    -0.14500
F273        F  0.22931849  0.61351200  0.11998912    -0.14500
F274        F  0.20966755  0.62487783  0.94538043    -0.15900
C275        C  0.36832849  0.59919579  0.97725501     0.14100
C276        C  0.38401726  0.60563067  0.97917029     0.01100
C277        C  0.39452396  0.62147579  0.98942645     0.16100
C278        C  0.38943118  0.63069033  0.99863154     0.25500
C279        C  0.37368494  0.62433168  0.99637136    -0.40800
C280        C  0.36321410  0.60845556  0.98506725     0.32500
C281        C  0.38939484  0.59575656  0.97162385     0.01200
F282        F  0.40979521  0.62808041  0.99036543    -0.13100
F283        F  0.34800625  0.60181336  0.98052744    -0.13700
C284        C  0.38544241  0.58674162  0.92787129     0.16100
C285        C  0.39023315  0.57714214  0.92147594     0.25500
C286        C  0.39932973  0.57659634  0.95839017    -0.40800
C287        C  0.40347304  0.58587133  0.00180321     0.32500
C288        C  0.39840883  0.59519739  0.00854341     0.14200
F289        F  0.37700931  0.58731161  0.89107439    -0.13100
F290        F  0.41270661  0.58623641  0.03752517    -0.13700
F291        F  0.38557794  0.56810277  0.87973914    -0.15900
F292        F  0.40213663  0.60353139  0.05169570    -0.14500
F293        F  0.35788164  0.58382844  0.96866379    -0.14500
F294        F  0.39998838  0.64573436  0.01108508    -0.15900
C295        C  0.06729647  0.54923647  0.67906563     0.14100
C296        C  0.06746509  0.56054000  0.70684214     0.01100
C297        C  0.05632732  0.56316847  0.69725482     0.16100
C298        C  0.04491755  0.55434939  0.66126931     0.25500
C299        C  0.04441004  0.54265498  0.63423440    -0.40800
C300        C  0.05589569  0.54036920  0.64309834     0.32500
C301        C  0.07849637  0.56871971  0.74851764     0.01200
F302        F  0.05643083  0.57421412  0.72325054    -0.13100
F303        F  0.05616459  0.52956330  0.61700386    -0.13700
C304        C  0.09435141  0.57804046  0.73966406     0.16100
C305        C  0.10464148  0.58519082  0.77991934     0.25500
C306        C  0.09920147  0.58304514  0.82968725    -0.40800
C307        C  0.08326961  0.57370740  0.83816261     0.32500
C308        C  0.07306283  0.56668356  0.79796876     0.14200
F309        F  0.09984393  0.58029628  0.69200088    -0.13100
F310        F  0.07745203  0.57068790  0.88550255    -0.13700
F311        F  0.11988972  0.59437359  0.77006533    -0.15900
F312        F  0.05779291  0.55737551  0.80754995    -0.14500
F313        F  0.07788678  0.54641424  0.68802429    -0.14500
F314        F  0.03417876  0.55705213  0.65393747    -0.15900
C315        C  0.07317028  0.56217929  0.25416388     0.14100
C316        C  0.07825670  0.56623818  0.30406922     0.01100
C317        C  0.09375302  0.57793350  0.31371557     0.16100
C318        C  0.10406538  0.58548903  0.27373533     0.25500
C319        C  0.09895707  0.58154300  0.22351153    -0.40800
C320        C  0.08338999  0.56971362  0.21424478     0.32500
C321        C  0.06728929  0.55793106  0.34568981     0.01200
F322        F  0.09890391  0.58187520  0.36184330    -0.13100
F323        F  0.07807423  0.56501087  0.16660759    -0.13700
C324        C  0.06074094  0.54220959  0.35360342     0.16100
C325        C  0.04947935  0.53390573  0.39030836     0.25500
C326        C  0.04444981  0.54117845  0.41963840    -0.40800
C327        C  0.05128088  0.55706677  0.41217731     0.32500
C328        C  0.06264158  0.56536677  0.37555284     0.14200
F329        F  0.06520785  0.53486735  0.32534914    -0.13100
F330        F  0.04709356  0.56463197  0.44055096    -0.13700
F331        F  0.04324564  0.51863596  0.39611144    -0.15900
F332        F  0.06884026  0.58057682  0.36831137    -0.14500
F333        F  0.05821800  0.55088392  0.24413182    -0.14500
F334        F  0.11895750  0.59684245  0.28418370    -0.15900
C335        C  0.51883478  0.93719897  0.31051745     0.14100
C336        C  0.52072521  0.95119923  0.30149258     0.01100
C337        C  0.52245645  0.95656060  0.25195044     0.16100
C338        C  0.52210576  0.94793446  0.21169773     0.25500
C339        C  0.52004128  0.93378039  0.22047140    -0.40800
C340        C  0.51851759  0.92855054  0.27030045     0.32500
C341        C  0.52037725  0.96005085  0.34337437     0.01200
F342        F  0.52392090  0.96990382  0.24250054    -0.13100
F343        F  0.51689179  0.91515241  0.28013504    -0.13700
C344        C  0.53329043  0.97501952  0.35409177     0.16100
C345        C  0.53260964  0.98393396  0.39101293     0.25500
C346        C  0.51890295  0.97801852  0.41767783    -0.40800
C347        C  0.50608629  0.96278141  0.40765115     0.32500
C348        C  0.50685282  0.95389425  0.37082562     0.14200
F349        F  0.54653909  0.98104521  0.32834016    -0.13100
F350        F  0.49276230  0.95643363  0.43327366    -0.13700
F351        F  0.54527065  0.99849640  0.39951037    -0.15900
F352        F  0.49422218  0.93943123  0.36078096    -0.14500
F353        F  0.51735256  0.93195834  0.35831196    -0.14500
F354        F  0.52301643  0.95309584  0.16415417    -0.15900
C355        C  0.51553716  0.93749340  0.74211455     0.14100
C356        C  0.51861874  0.95197968  0.75279662     0.01100
C357        C  0.52170456  0.95741457  0.80257941     0.16100
C358        C  0.52149569  0.94841726  0.84134619     0.25500
C359        C  0.51830393  0.93380545  0.83093754    -0.40800
C360        C  0.51542626  0.92849573  0.78079072     0.32500
C361        C  0.51823856  0.96128118  0.71227523     0.01200
F362        F  0.52440032  0.97124469  0.81391026    -0.13100
F363        F  0.51272467  0.91469655  0.76899895    -0.13700
C364        C  0.50452542  0.95570954  0.68665669     0.16100
C365        C  0.50403209  0.96453753  0.64878686     0.25500
C366        C  0.51732385  0.97917459  0.63562188    -0.40800
C367        C  0.53107841  0.98471145  0.66169233     0.32500
C368        C  0.53148516  0.97585080  0.69968641     0.14200
F369        F  0.49150530  0.94177491  0.69898740    -0.13100
F370        F  0.54417317  0.99875372  0.65086664    -0.13700
F371        F  0.49051016  0.95862999  0.62492364    -0.15900
F372        F  0.54488901  0.98142946  0.72392186    -0.14500
F373        F  0.51275098  0.93212738  0.69406072    -0.14500
F374        F  0.52371364  0.95376988  0.88927079    -0.15900
C375        C  0.50827831  0.05346280  0.78795772     0.14100
C376        C  0.51050162  0.05885993  0.73832873     0.01100
C377        C  0.51266905  0.07297245  0.72860952     0.16100
C378        C  0.51259248  0.08159051  0.76823999     0.25500
C379        C  0.51040390  0.07621638  0.81821586    -0.40800
C380        C  0.50829744  0.06205696  0.82755778     0.32500
C381        C  0.51105774  0.04987757  0.69730893     0.01200
F382        F  0.51474383  0.07832455  0.68070400    -0.13100
F383        F  0.50701690  0.05680237  0.87517328    -0.13700
C384        C  0.49840158  0.03463339  0.68800590     0.16100
C385        C  0.49934895  0.02558102  0.65243117     0.25500
C386        C  0.51301399  0.03167069  0.62533124    -0.40800
C387        C  0.52559753  0.04709901  0.63415725     0.32500
C388        C  0.52460301  0.05610127  0.66987385     0.14200
F389        F  0.48515025  0.02845957  0.71391373    -0.13100
F390        F  0.53890498  0.05352706  0.60836734    -0.13700
F391        F  0.48700319  0.01072440  0.64570677    -0.15900
F392        F  0.53705394  0.07074837  0.67892678    -0.14500
F393        F  0.50663273  0.04007076  0.79827618    -0.14500
F394        F  0.51447422  0.09507168  0.75757549    -0.15900
C395        C  0.51881572  0.07330687  0.29776700     0.14100
C396        C  0.51412031  0.05809189  0.28967366     0.01100
C397        C  0.50917175  0.05155552  0.24151814     0.16100
C398        C  0.50902378  0.06010300  0.20186844     0.25500
C399        C  0.51371728  0.07540897  0.20966493    -0.40800
C400        C  0.51850041  0.08184383  0.25835022     0.32500
C401        C  0.51438255  0.04898132  0.33128014     0.01200
F402        F  0.50489516  0.03697801  0.23249414    -0.13100
F403        F  0.52260597  0.09630215  0.26835488    -0.13700
C404        C  0.50082357  0.03501635  0.34649248     0.16100
C405        C  0.50106507  0.02610469  0.38466520     0.25500
C406        C  0.51495401  0.03097961  0.40847325    -0.40800
C407        C  0.52851827  0.04515958  0.39340608     0.32500
C408        C  0.52820506  0.05402529  0.35521317     0.14200
F409        F  0.48727079  0.03006255  0.32453572    -0.13100
F410        F  0.54216611  0.05054543  0.41548237    -0.13700
F411        F  0.48765173  0.01266914  0.39793875    -0.15900
F412        F  0.54150228  0.06741304  0.34078879    -0.14500
F413        F  0.52349919  0.07983246  0.34415747    -0.14500
F414        F  0.50484009  0.05348272  0.15556440    -0.15900
C415        C  0.59323815  0.24567574  0.03441073     0.14100
C416        C  0.59928680  0.23746333  0.02150505     0.01100
C417        C  0.61496881  0.24561299  0.01089427     0.16100
C418        C  0.62453062  0.26175067  0.01367019     0.25500
C419        C  0.61856559  0.27005016  0.02723392    -0.40800
C420        C  0.60277904  0.26182605  0.03729316     0.32500
C421        C  0.58930726  0.22037812  0.01994507     0.01200
F422        F  0.62097434  0.23791874  0.99694347    -0.13100
F423        F  0.59661152  0.26933867  0.05147859    -0.13700
C424        C  0.57683146  0.21248817  0.98659259     0.16100
C425        C  0.56743037  0.19632384  0.98521347     0.25500
C426        C  0.57033416  0.18780343  0.01736481    -0.40800
C427        C  0.58280780  0.19573503  0.05084394     0.32500
C428        C  0.59222992  0.21188938  0.05201740     0.14200
F429        F  0.57385273  0.22045773  0.95499794    -0.13100
F430        F  0.58612234  0.18787608  0.08162062    -0.13700
F431        F  0.55524585  0.18902138  0.95342085    -0.15900
F432        F  0.60412982  0.21927502  0.08494530    -0.14500
F433        F  0.57813497  0.23800815  0.04548555    -0.14500
F434        F  0.63952608  0.26922379  0.00149457    -0.15900
C435        C  0.62256624  0.41897478  0.91842423     0.14100
C436        C  0.61560747  0.40574099  0.94890360     0.01100
C437        C  0.60204253  0.40069939  0.97465682     0.16100
C438        C  0.59574265  0.40904673  0.97111358     0.25500
C439        C  0.60277208  0.42240048  0.94097760    -0.40800
C440        C  0.61612612  0.42716724  0.91407479     0.32500
C441        C  0.62275989  0.39746856  0.95512117     0.01200
F442        F  0.59510284  0.38787367  0.00409305    -0.13100
F443        F  0.62331239  0.44012826  0.88524911    -0.13700
C444        C  0.63604922  0.40397911  0.98440164     0.16100
C445        C  0.64267499  0.39604548  0.99146702     0.25500
C446        C  0.63612998  0.38144842  0.96912500    -0.40800
C447        C  0.62286668  0.37504088  0.93930737     0.32500
C448        C  0.61623725  0.38298380  0.93250681     0.14200
F449        F  0.64238239  0.41788036  0.00721198    -0.13100
F450        F  0.61646870  0.36122999  0.91581038    -0.13700
F451        F  0.65512681  0.40239509  0.02183033    -0.15900
F452        F  0.60351438  0.37661292  0.90342569    -0.14500
F453        F  0.63567545  0.42400944  0.89319370    -0.14500
F454        F  0.58267887  0.40399063  0.99667493    -0.15900
C455        C  0.95628185  0.48563414  0.68648653     0.14100
C456        C  0.95573773  0.47379162  0.71211453     0.01100
C457        C  0.96638843  0.47068868  0.70006280     0.16100
C458        C  0.97747817  0.47931582  0.66307579     0.25500
C459        C  0.97816360  0.49129865  0.63720869    -0.40800
C460        C  0.96738962  0.49433969  0.64947703     0.32500
C461        C  0.94445038  0.46506786  0.75282793     0.01200
F462        F  0.96599518  0.45920019  0.72407768    -0.13100
F463        F  0.96751218  0.50569962  0.62571023    -0.13700
C464        C  0.92866399  0.45603300  0.74273392     0.16100
C465        C  0.91806050  0.44810098  0.78170239     0.25500
C466        C  0.92307776  0.44915708  0.83156285    -0.40800
C467        C  0.93895948  0.45816424  0.84132997     0.32500
C468        C  0.94949873  0.46596168  0.80229888     0.14200
F469        F  0.92353150  0.45474099  0.69495533    -0.13100
F470        F  0.94440852  0.46004909  0.88891126    -0.13700
F471        F  0.90289963  0.43916396  0.77041041    -0.15900
F472        F  0.96470415  0.47481557  0.81309209    -0.14500
F473        F  0.94624038  0.48899905  0.69816960    -0.14500
F474        F  0.98765713  0.47600065  0.65326331    -0.15900
C475        C  0.95166135  0.46651311  0.24640505     0.14100
C476        C  0.94662992  0.46513688  0.29617739     0.01100
C477        C  0.93089481  0.45543878  0.30666211     0.16100
C478        C  0.92028658  0.44738341  0.26784354     0.25500
C479        C  0.92522446  0.44899583  0.21762403    -0.40800
C480        C  0.94107893  0.45857138  0.20739600     0.32500
C481        C  0.95776681  0.47399676  0.33714738     0.01200
F482        F  0.92581914  0.45368010  0.35472508    -0.13100
F483        F  0.94640012  0.46085732  0.15951223    -0.13700
C484        C  0.95776337  0.48548570  0.36302912     0.16100
C485        C  0.96826507  0.49388944  0.40186643     0.25500
C486        C  0.97898011  0.49090301  0.41572288    -0.40800
C487        C  0.97884744  0.47926798  0.38962466     0.32500
C488        C  0.96838500  0.47097059  0.35062404     0.14200
F489        F  0.94769102  0.48871388  0.35011044    -0.13100
F490        F  0.98895641  0.47598642  0.40123960    -0.13700
F491        F  0.96780147  0.50484428  0.42605224    -0.15900
F492        F  0.96849568  0.45981902  0.32629406    -0.14500
F493        F  0.96683096  0.47597210  0.23537142    -0.14500
F494        F  0.90518917  0.43781625  0.27962973    -0.15900
C495        C  0.76141931  0.39906831  0.05318238     0.14100
C496        C  0.76696226  0.39019560  0.04314573     0.01100
C497        C  0.75641743  0.37426665  0.03400827     0.16100
C498        C  0.74068056  0.36740717  0.03329607     0.25500
C499        C  0.73505444  0.37628594  0.04255461    -0.40800
C500        C  0.74563713  0.39218832  0.05304994     0.32500
C501        C  0.78368922  0.39751673  0.04034530     0.01200
F502        F  0.76138643  0.36529538  0.02560519    -0.13100
F503        F  0.74075559  0.40110382  0.06384412    -0.13700
C504        C  0.79339704  0.40589474  0.08122835     0.16100
C505        C  0.80907437  0.41238435  0.07859767     0.25500
C506        C  0.81537310  0.41044498  0.03517560    -0.40800
C507        C  0.80555940  0.40208587  0.99421947     0.32500
C508        C  0.78997887  0.39586232  0.99666176     0.12500
F509        F  0.78764457  0.40751913  0.12425360    -0.13100
F510        F  0.81081592  0.39939280  0.95215583    -0.13700
F511        F  0.81805515  0.42072456  0.11850613    -0.15900
F512        F  0.78097887  0.38817674  0.95602380    -0.14500
F513        F  0.77130585  0.41450046  0.06190081    -0.14500
F514        F  0.73104910  0.35215520  0.02164195    -0.15900
C515        C  0.55150678  0.49776968  0.16124512     0.14100
C516        C  0.55316848  0.49462811  0.21114482     0.01100
C517        C  0.56206767  0.48918223  0.22116724     0.16100
C518        C  0.56909918  0.48675860  0.18177825     0.25500
C519        C  0.56728426  0.48967494  0.13154047    -0.40800
C520        C  0.55844738  0.49528692  0.12177613     0.32500
C521        C  0.54534609  0.49672599  0.25262433     0.01200
F522        F  0.56406724  0.48636957  0.26929284    -0.13100
F523        F  0.55592856  0.49776536  0.07390145    -0.13700
C524        C  0.53369309  0.48389661  0.28003231     0.16100
C525        C  0.52610281  0.48576979  0.31880663     0.25500
C526        C  0.53006474  0.50059197  0.33109789    -0.40800
C527        C  0.54186705  0.51345647  0.30351085     0.32500
C528        C  0.54935811  0.51149997  0.26456648     0.14200
F529        F  0.52943512  0.46946338  0.26845126    -0.13100
F530        F  0.54604511  0.52795210  0.31344182    -0.13700
F531        F  0.51488134  0.47301497  0.34421429    -0.15900
F532        F  0.56062500  0.52407525  0.23858227    -0.14500
F533        F  0.54274111  0.50279474  0.15059432    -0.14500
F534        F  0.57792231  0.48184672  0.19296569    -0.15900
C535        C  0.56227326  0.48878661  0.65460381     0.14100
C536        C  0.55446757  0.49539070  0.66533310     0.01100
C537        C  0.55418939  0.49973773  0.71485044     0.16100
C538        C  0.56148246  0.49743002  0.75339325     0.25500
C539        C  0.56948563  0.49090839  0.74308820    -0.40800
C540        C  0.56981731  0.48665640  0.69302172     0.32500
C541        C  0.54621889  0.49742952  0.62538876     0.01200
F542        F  0.54637033  0.50577917  0.72620846    -0.13100
F543        F  0.57760955  0.48065239  0.68088774    -0.13700
C544        C  0.53335128  0.48447993  0.60226074     0.16100
C545        C  0.52510408  0.48632537  0.56604316     0.25500
C546        C  0.52964528  0.50124850  0.55196269    -0.40800
C547        C  0.54256346  0.51422109  0.57564603     0.32500
C548        C  0.55073259  0.51229380  0.61202881     0.14200
F549        F  0.52856361  0.46998875  0.61562354    -0.13100
F550        F  0.54726681  0.52880389  0.56413566    -0.13700
F551        F  0.51269702  0.47342688  0.54479988    -0.15900
F552        F  0.56313716  0.52497228  0.63417868    -0.14500
F553        F  0.56270476  0.48454645  0.60675996    -0.14500
F554        F  0.56002647  0.50099462  0.80103764    -0.15900
C555        C  0.45497253  0.52996506  0.65682567     0.14100
C556        C  0.45308925  0.51598905  0.64659288     0.01100
C557        C  0.44259130  0.50280503  0.67529972     0.16100
C558        C  0.43456495  0.50371270  0.71470930     0.25500
C559        C  0.43699989  0.51786252  0.72662423    -0.40800
C560        C  0.44704165  0.53092214  0.69662096     0.32500
C561        C  0.46263742  0.51525644  0.60815870     0.01200
F562        F  0.44061488  0.48917150  0.66671030    -0.13100
F563        F  0.44989890  0.54484270  0.70746104    -0.13700
C564        C  0.47871535  0.52522036  0.61126499     0.16100
C565        C  0.48774521  0.52369706  0.57753297     0.25500
C566        C  0.48084564  0.51196172  0.54081723    -0.40800
C567        C  0.46477151  0.50223604  0.53702425     0.32500
C568        C  0.45576665  0.50396656  0.57008257     0.14200
F569        F  0.48568565  0.53603248  0.64828145    -0.13100
F570        F  0.45775552  0.49121517  0.50064477    -0.13700
F571        F  0.50322114  0.53330455  0.58211630    -0.15900
F572        F  0.44029740  0.49460907  0.56488486    -0.14500
F573        F  0.46473542  0.54278369  0.62887907    -0.14500
F574        F  0.42454461  0.49075485  0.74171213    -0.15900
C575        C  0.45851667  0.49826077  0.27948102     0.14100
C576        C  0.46524601  0.51169030  0.25042144     0.01100
C577        C  0.48031547  0.52438285  0.26043504     0.16100
C578        C  0.48868967  0.52360219  0.29900145     0.25500
C579        C  0.48209829  0.50999580  0.32782508    -0.40800
C580        C  0.46684263  0.49736345  0.31777557     0.32500
C581        C  0.45671811  0.51218967  0.20819951     0.01200
F582        F  0.48691340  0.53750374  0.23261164    -0.13100
F583        F  0.45988491  0.48408878  0.34494581    -0.13700
C584        C  0.44455365  0.51329925  0.21715583     0.16100
C585        C  0.43663615  0.51398350  0.17676105     0.25500
C586        C  0.44078450  0.51351801  0.12684301    -0.40800
C587        C  0.45276627  0.51198636  0.11824224     0.32500
C588        C  0.46066876  0.51135914  0.15869103     0.14200
F589        F  0.44052234  0.51394891  0.26502517    -0.13100
F590        F  0.45731494  0.51173823  0.07082487    -0.13700
F591        F  0.42482471  0.51493633  0.18651853    -0.15900
F592        F  0.47224999  0.50998784  0.14962604    -0.14500
F593        F  0.44395720  0.48586887  0.26992562    -0.14500
F594        F  0.50331967  0.53603668  0.30722599    -0.15900
loop_ 
_geom_bond_atom_site_label_1 
_geom_bond_atom_site_label_2 
_geom_bond_distance 
_geom_bond_site_symmetry_2 
_ccdc_geom_bond_type 
O1           Cu9   2.006       .  S
O1           C11   1.278       .  A
O2           Cu9   2.009       .  S
O2           C12   1.278       .  A
O3           Cu9   1.997       .  S
O3           C13   1.276       .  A
O4           Cu9   1.986       .  S
O4           C14   1.275       .  A
O5          Cu10   2.012       .  S
O5           C14   1.279       .  A
O6          Cu10   2.015       .  S
O6           C13   1.279       .  A
O7          Cu10   2.010       .  S
O7           C12   1.278       .  A
O8          Cu10   2.009       .  S
O8           C11   1.277       .  A
Cu9         Cu10   2.368       .  S
C11         C566   1.478       .  S
C12         C526   1.489       .  S
C13         C546   1.487       .  S
C14         C579   1.481       .  S
N15          N16   1.320       .  A
N15          C19   1.345       .  A
N15         Cu23   2.075       .  S
N16          C17   1.343       .  A
N16         Cu22   2.062       .  S
C17          C18   1.386       .  A
C17          H20   1.084       .  S
C18         C479   1.485       .  S
C18          C19   1.388       .  A
C19          H21   1.081       .  S
Cu22         N25   2.062   1_554  S
Cu23         N33   2.075       .  S
Cu24         N26   2.084       .  S
Cu24         N32   2.084   1_556  S
N25          N26   1.321       .  A
N25          C29   1.341       .  A
N26          C27   1.347       .  A
C27          C28   1.389       .  A
C27          H30   1.082       .  S
C28         C466   1.485       .  S
C28          C29   1.384       .  A
C29          H31   1.084       .  S
N32          N33   1.321       .  A
N32          C36   1.345   1_554  A
N33          C34   1.344       .  A
C34          C35   1.388       .  A
C34          H37   1.082       .  S
C35         C506   1.493       .  S
C35          C36   1.391   1_554  A
C36          H38   1.082       .  S
N39          N40   1.321       .  A
N39          C43   1.347       .  A
N39         Cu47   2.084       .  S
N40          C41   1.343       .  A
N40         Cu46   2.066   1_554  S
C41          C42   1.385       .  A
C41          H44   1.080       .  S
C42         C519   1.486       .  S
C42          C43   1.389       .  A
C43          H45   1.081       .  S
Cu46         N49   2.065       .  S
Cu47         N57   2.085   1_554  S
Cu48         N50   2.078       .  S
Cu48         N56   2.079       .  S
N49          N50   1.320       .  A
N49          C53   1.341       .  A
N50          C51   1.347       .  A
C51          C52   1.391       .  A
C51          H54   1.081       .  S
C52         C539   1.490       .  S
C52          C53   1.387       .  A
C53          H55   1.079       .  S
N56          N57   1.324       .  A
N56          C60   1.346       .  A
N57          C58   1.346       .  A
C58          C59   1.385       .  A
C58          H61   1.082   1_556  S
C59         C439   1.480       .  S
C59          C60   1.384       .  A
C60          H62   1.083       .  S
N63          N64   1.321       .  A
N63          C67   1.343       .  A
N63         Cu71   2.066       .  S
N64          C65   1.344       .  A
N64         Cu70   2.073       .  S
C65          C66   1.387       .  A
C65          H68   1.083       .  S
C66         C419   1.482       .  S
C66          C67   1.385       .  A
C67          H69   1.083       .  S
Cu70         N73   2.073       .  S
Cu71         N81   2.066   1_554  S
Cu72         N74   2.088       .  S
Cu72         N80   2.088   1_554  S
N73          N74   1.322       .  A
N73          C77   1.344       .  A
N74          C75   1.347       .  A
C75          C76   1.390       .  A
C75          H78   1.079       .  S
C76         C499   1.490       .  S
C76          C77   1.387       .  A
C77          H79   1.079       .  S
N80          N81   1.322       .  A
N80          C84   1.347       .  A
N81          C82   1.343       .  A
C82          C83   1.384       .  A
C82          H85   1.085       .  S
C83         C446   1.485       .  S
C83          C84   1.389       .  A
C84          H86   1.083       .  S
N87          N88   1.321       .  A
N87          C91   1.344       .  A
N87         Cu95   2.065       .  S
N88          C89   1.341       .  A
N88         Cu94   2.069   1_556  S
C89          C90   1.386       .  A
C89          H92   1.081       .  S
C90         C379   1.481       .  S
C90          C91   1.385       .  A
C91          H93   1.082       .  S
Cu94         N97   2.070       .  S
Cu95        N105   2.066       .  S
Cu96         N98   2.067       .  S
Cu96        N104   2.068       .  S
N97          N98   1.319       .  A
N97         C101   1.344       .  A
N98          C99   1.343       .  A
C99         C100   1.388       .  A
C99         H102   1.080       .  S
C100        C399   1.489       .  S
C100        C101   1.390       .  A
C101        H103   1.079       .  S
N104        N105   1.322   1_554  A
N104        C108   1.343       .  A
N105        C106   1.343       .  A
C106        C107   1.384   1_556  A
C106        H109   1.083       .  S
C107        C426   1.476       .  S
C107        C108   1.383       .  A
C108        H110   1.083       .  S
O111       Cu119   1.996   1_545  S
O111        C121   1.277       .  A
O112       Cu119   1.998       .  S
O112        C122   1.277       .  A
O113       Cu119   2.011       .  S
O113        C123   1.278       .  A
O114       Cu119   2.013   1_545  S
O114        C124   1.279       .  A
O115       Cu120   2.008       .  S
O115        C124   1.278       .  A
O116       Cu120   2.008       .  S
O116        C123   1.278   1_545  A
O117       Cu120   2.001       .  S
O117        C122   1.277   1_545  A
O118       Cu120   1.999       .  S
O118        C121   1.277       .  A
Cu119      Cu120   2.367   1_565  S
C121        C386   1.479       .  S
C122        C346   1.481       .  S
C123        C366   1.489       .  S
C124        C406   1.490       .  S
O125       Cu133   2.002   1_655  S
O125        C135   1.277       .  A
O126       Cu133   1.998       .  S
O126        C136   1.277       .  A
O127       Cu133   2.004       .  S
O127        C137   1.278       .  A
O128       Cu133   2.007   1_655  S
O128        C138   1.278       .  A
O129       Cu134   2.012   1_655  S
O129        C138   1.278       .  A
O130       Cu134   2.007       .  S
O130        C137   1.278       .  A
O131       Cu134   2.015       .  S
O131        C136   1.279       .  A
O132       Cu134   2.018   1_655  S
O132        C135   1.279       .  A
Cu133      Cu134   2.367       .  S
C135        C459   1.489       .  S
C136        C326   1.483       .  S
C137        C299   1.484       .  S
C138        C486   1.488       .  S
N139        N140   1.321       .  A
N139        C143   1.346       .  A
N139       Cu147   2.073       .  S
N140        C141   1.341       .  A
N140       Cu146   2.063       .  S
C141        C142   1.383       .  A
C141        H144   1.081       .  S
C142        C559   1.479       .  S
C142        C143   1.386       .  A
C143        H145   1.081       .  S
Cu146       N149   2.062   1_556  S
Cu147       N157   2.073       .  S
Cu148       N150   2.060       .  S
Cu148       N156   2.061   1_554  S
N149        N150   1.319       .  A
N149        C153   1.342       .  A
N150        C151   1.342       .  A
C151        C152   1.385       .  A
C151        H154   1.082       .  S
C152        C586   1.478       .  S
C152        C153   1.385       .  A
C153        H155   1.080       .  S
N156        N157   1.321       .  A
N156        C160   1.341       .  A
N157        C158   1.345       .  A
C158        C159   1.388       .  A
C158        H161   1.081       .  S
C159        C286   1.483       .  S
C159        C160   1.385       .  A
C160        H162   1.081   1_556  S
N163        N164   1.319       .  A
N163        C167   1.343       .  A
N163       Cu171   2.070       .  S
N164        C165   1.343       .  A
N164       Cu170   2.054       .  S
C165        C166   1.384       .  A
C165        H168   1.083       .  S
C166        C246   1.480       .  S
C166        C167   1.387       .  A
C167        H169   1.083       .  S
Cu170       N173   2.054       .  S
Cu171       N181   2.070       .  S
Cu172       N174   2.069       .  S
Cu172       N180   2.069       .  S
N173        N174   1.321       .  A
N173        C177   1.339       .  A
N174        C175   1.346       .  A
C175        C176   1.386       .  A
C175        H178   1.080       .  S
C176        C266   1.476       .  S
C176        C177   1.381       .  A
C177        H179   1.080       .  S
N180        N181   1.321       .  A
N180        C184   1.343       .  A
N181        C182   1.342   1_554  A
C182        C183   1.388   1_556  A
C182        H185   1.083       .  S
C183        C279   1.488   1_554  S
C183        C184   1.388       .  A
C184        H186   1.084       .  S
N187        N188   1.320       .  A
N187        C191   1.345       .  A
N187       Cu195   2.068       .  S
N188        C189   1.340       .  A
N188       Cu194   2.063   1_556  S
C189        C190   1.385       .  A
C189        H192   1.084       .  S
C190        C306   1.482       .  S
C190        C191   1.387       .  A
C191        H193   1.083       .  S
Cu194       N197   2.063       .  S
Cu195       N205   2.068   1_556  S
Cu196       N198   2.070       .  S
Cu196       N204   2.071       .  S
N197        N198   1.319       .  A
N197        C201   1.341       .  A
N198        C199   1.346       .  A
C199        C200   1.388       .  A
C199        H202   1.082       .  S
C200        C319   1.483       .  S
C200        C201   1.385       .  A
C201        H203   1.084       .  S
N204        N205   1.322       .  A
N204        C208   1.341       .  A
N205        C206   1.344   1_554  A
C206        C207   1.385   1_556  A
C206        H209   1.083       .  S
C207        C259   1.481       .  S
C207        C208   1.385       .  A
C208        H210   1.082       .  S
N211        N212   1.321       .  A
N211        C215   1.346       .  A
N211       Cu219   2.078       .  S
N212        C213   1.342       .  A
N212       Cu218   2.061   1_556  S
C213        C214   1.385       .  A
C213        H216   1.081       .  S
C214        C359   1.484       .  S
C214        C215   1.388       .  A
C215        H217   1.081       .  S
Cu218       N221   2.062       .  S
Cu219       N229   2.078   1_556  S
Cu220       N222   2.065       .  S
Cu220       N228   2.066       .  S
N221        N222   1.321       .  A
N221        C225   1.343       .  A
N222        C223   1.343       .  A
C223        C224   1.384       .  A
C223        H226   1.081       .  S
C224        C339   1.477       .  S
C224        C225   1.384       .  A
C225        H227   1.081       .  S
N228        N229   1.322       .  A
N228        C232   1.344       .  A
N229        C230   1.344   1_554  A
C230        C231   1.384   1_556  A
C230        H233   1.082       .  S
C231        C239   1.476       .  S
C231        C232   1.382       .  A
C232        H234   1.084       .  S
C235        C236   1.404       .  A
C235        C240   1.399       .  A
C235        F253   1.358       .  S
C236        C241   1.476       .  S
C236        C237   1.404   1_554  A
C237        C238   1.396       .  A
C237        F242   1.358       .  S
C238        C239   1.406   1_556  A
C238        F254   1.358       .  S
C239        C240   1.408       .  A
C240        F243   1.358       .  S
C241        C244   1.404       .  A
C241        C248   1.403       .  A
C244        C245   1.399       .  A
C244        F249   1.358       .  S
C245        C246   1.410       .  A
C245        F251   1.358       .  S
C246        C247   1.408       .  A
C247        C248   1.395       .  A
C247        F250   1.357       .  S
C248        F252   1.358       .  S
C255        C256   1.400       .  A
C255        C260   1.394       .  A
C255        F273   1.358       .  S
C256        C261   1.470       .  S
C256        C257   1.402   1_554  A
C257        C258   1.399       .  A
C257        F262   1.358       .  S
C258        C259   1.411   1_556  A
C258        F274   1.357       .  S
C259        C260   1.410       .  A
C260        F263   1.357       .  S
C261        C264   1.402       .  A
C261        C268   1.401       .  A
C264        C265   1.399       .  A
C264        F269   1.358   1_554  S
C265        C266   1.409       .  A
C265        F271   1.357   1_554  S
C266        C267   1.408       .  A
C267        C268   1.393       .  A
C267        F270   1.358       .  S
C268        F272   1.358       .  S
C275        C276   1.404       .  A
C275        C280   1.397       .  A
C275        F293   1.358       .  S
C276        C281   1.480       .  S
C276        C277   1.404       .  A
C277        C278   1.397       .  A
C277        F282   1.358       .  S
C278        C279   1.411       .  A
C278        F294   1.356   1_556  S
C279        C280   1.411       .  A
C280        F283   1.356       .  S
C281        C284   1.405       .  A
C281        C288   1.404   1_556  A
C284        C285   1.398       .  A
C284        F289   1.358       .  S
C285        C286   1.409       .  A
C285        F291   1.357       .  S
C286        C287   1.410   1_556  A
C287        C288   1.395       .  A
C287        F290   1.357       .  S
C288        F292   1.358       .  S
C295        C296   1.403       .  A
C295        C300   1.398       .  A
C295        F313   1.358       .  S
C296        C301   1.477       .  S
C296        C297   1.404       .  A
C297        C298   1.398       .  A
C297        F302   1.358       .  S
C298        C299   1.410       .  A
C298        F314   1.358       .  S
C299        C300   1.411       .  A
C300        F303   1.358       .  S
C301        C304   1.405       .  A
C301        C308   1.402       .  A
C304        C305   1.400       .  A
C304        F309   1.358       .  S
C305        C306   1.409       .  A
C305        F311   1.357       .  S
C306        C307   1.410       .  A
C307        C308   1.394       .  A
C307        F310   1.357       .  S
C308        F312   1.358       .  S
C315        C316   1.402       .  A
C315        C320   1.395       .  A
C315        F333   1.358       .  S
C316        C321   1.476       .  S
C316        C317   1.404       .  A
C317        C318   1.401       .  A
C317        F322   1.358       .  S
C318        C319   1.409       .  A
C318        F334   1.357       .  S
C319        C320   1.410       .  A
C320        F323   1.357       .  S
C321        C324   1.402       .  A
C321        C328   1.403       .  A
C324        C325   1.396       .  A
C324        F329   1.358       .  S
C325        C326   1.410       .  A
C325        F331   1.358       .  S
C326        C327   1.411       .  A
C327        C328   1.400       .  A
C327        F330   1.358       .  S
C328        F332   1.358       .  S
C335        C336   1.403       .  A
C335        C340   1.397       .  A
C335        F353   1.358       .  S
C336        C341   1.472       .  S
C336        C337   1.403       .  A
C337        C338   1.395       .  A
C337        F342   1.358       .  S
C338        C339   1.409       .  A
C338        F354   1.357       .  S
C339        C340   1.407       .  A
C340        F343   1.357       .  S
C341        C344   1.402       .  A
C341        C348   1.402       .  A
C344        C345   1.396       .  A
C344        F349   1.358       .  S
C345        C346   1.410       .  A
C345        F351   1.358       .  S
C346        C347   1.411       .  A
C347        C348   1.396       .  A
C347        F350   1.358       .  S
C348        F352   1.358       .  S
C355        C356   1.404       .  A
C355        C360   1.400       .  A
C355        F373   1.358       .  S
C356        C361   1.479       .  S
C356        C357   1.403       .  A
C357        C358   1.397       .  A
C357        F362   1.358       .  S
C358        C359   1.411       .  A
C358        F374   1.357       .  S
C359        C360   1.408       .  A
C360        F363   1.357       .  S
C361        C364   1.403       .  A
C361        C368   1.403       .  A
C364        C365   1.398       .  A
C364        F369   1.358       .  S
C365        C366   1.412       .  A
C365        F371   1.358       .  S
C366        C367   1.413       .  A
C367        C368   1.399       .  A
C367        F370   1.358       .  S
C368        F372   1.358       .  S
C375        C376   1.401       .  A
C375        C380   1.393       .  A
C375        F393   1.358       .  S
C376        C381   1.474       .  S
C376        C377   1.404       .  A
C377        C378   1.399       .  A
C377        F382   1.358       .  S
C378        C379   1.409       .  A
C378        F394   1.357       .  S
C379        C380   1.410       .  A
C380        F383   1.357       .  S
C381        C384   1.403       .  A
C381        C388   1.402       .  A
C384        C385   1.395       .  A
C384        F389   1.358       .  S
C385        C386   1.410       .  A
C385        F391   1.358       .  S
C386        C387   1.410       .  A
C387        C388   1.396       .  A
C387        F390   1.358       .  S
C388        F392   1.358       .  S
C395        C396   1.404       .  A
C395        C400   1.400       .  A
C395        F413   1.358       .  S
C396        C401   1.481       .  S
C396        C397   1.403       .  A
C397        C398   1.398       .  A
C397        F402   1.358       .  S
C398        C399   1.412       .  A
C398        F414   1.356       .  S
C399        C400   1.411       .  A
C400        F403   1.357       .  S
C401        C404   1.403       .  A
C401        C408   1.403       .  A
C404        C405   1.399       .  A
C404        F409   1.358       .  S
C405        C406   1.412       .  A
C405        F411   1.358       .  S
C406        C407   1.413       .  A
C407        C408   1.399       .  A
C407        F410   1.358       .  S
C408        F412   1.358       .  S
C415        C416   1.404       .  A
C415        C420   1.398       .  A
C415        F433   1.358       .  S
C416        C421   1.477       .  S
C416        C417   1.403       .  A
C417        C418   1.397       .  A
C417        F422   1.358   1_554  S
C418        C419   1.409       .  A
C418        F434   1.357       .  S
C419        C420   1.409       .  A
C420        F423   1.357       .  S
C421        C424   1.404   1_554  A
C421        C428   1.404       .  A
C424        C425   1.398       .  A
C424        F429   1.358       .  S
C425        C426   1.407   1_556  A
C425        F431   1.358       .  S
C426        C427   1.407       .  A
C427        C428   1.397       .  A
C427        F430   1.358       .  S
C428        F432   1.358       .  S
C435        C436   1.404       .  A
C435        C440   1.400       .  A
C435        F453   1.358       .  S
C436        C441   1.479       .  S
C436        C437   1.404       .  A
C437        C438   1.401       .  A
C437        F442   1.358   1_556  S
C438        C439   1.407       .  A
C438        F454   1.358       .  S
C439        C440   1.408       .  A
C440        F443   1.358       .  S
C441        C444   1.403       .  A
C441        C448   1.403       .  A
C444        C445   1.400       .  A
C444        F449   1.358   1_556  S
C445        C446   1.409       .  A
C445        F451   1.357   1_556  S
C446        C447   1.410       .  A
C447        C448   1.400       .  A
C447        F450   1.357       .  S
C448        F452   1.358       .  S
C455        C456   1.404       .  A
C455        C460   1.400       .  A
C455        F473   1.358       .  S
C456        C461   1.480       .  S
C456        C457   1.403       .  A
C457        C458   1.398       .  A
C457        F462   1.358       .  S
C458        C459   1.413       .  A
C458        F474   1.358       .  S
C459        C460   1.412       .  A
C460        F463   1.358       .  S
C461        C464   1.404       .  A
C461        C468   1.403       .  A
C464        C465   1.401       .  A
C464        F469   1.358       .  S
C465        C466   1.409       .  A
C465        F471   1.357       .  S
C466        C467   1.411       .  A
C467        C468   1.397       .  A
C467        F470   1.357       .  S
C468        F472   1.358       .  S
C475        C476   1.403       .  A
C475        C480   1.399       .  A
C475        F493   1.358       .  S
C476        C481   1.479       .  S
C476        C477   1.403       .  A
C477        C478   1.398       .  A
C477        F482   1.358       .  S
C478        C479   1.409       .  A
C478        F494   1.357       .  S
C479        C480   1.411       .  A
C480        F483   1.357       .  S
C481        C484   1.403       .  A
C481        C488   1.402       .  A
C484        C485   1.399       .  A
C484        F489   1.358       .  S
C485        C486   1.412       .  A
C485        F491   1.358       .  S
C486        C487   1.412       .  A
C487        C488   1.399       .  A
C487        F490   1.358       .  S
C488        F492   1.358       .  S
C495        C496   1.406       .  A
C495        C500   1.402       .  A
C495        F513   1.358       .  S
C496        C501   1.488       .  S
C496        C497   1.405       .  A
C497        C498   1.398       .  A
C497        F502   1.358       .  S
C498        C499   1.410       .  A
C498        F514   1.357       .  S
C499        C500   1.410       .  A
C500        F503   1.357       .  S
C501        C504   1.405       .  A
C501        C508   1.405   1_554  A
C504        C505   1.402       .  A
C504        F509   1.358       .  S
C505        C506   1.413       .  A
C505        F511   1.357       .  S
C506        C507   1.411   1_554  A
C507        C508   1.398       .  A
C507        F510   1.356       .  S
C508        F512   1.358       .  S
C515        C516   1.403       .  A
C515        C520   1.399       .  A
C515        F533   1.358       .  S
C516        C521   1.480       .  S
C516        C517   1.404       .  A
C517        C518   1.401       .  A
C517        F522   1.358       .  S
C518        C519   1.409       .  A
C518        F534   1.357       .  S
C519        C520   1.411       .  A
C520        F523   1.357       .  S
C521        C524   1.403       .  A
C521        C528   1.403       .  A
C524        C525   1.399       .  A
C524        F529   1.358       .  S
C525        C526   1.412       .  A
C525        F531   1.358       .  S
C526        C527   1.413       .  A
C527        C528   1.400       .  A
C527        F530   1.358       .  S
C528        F532   1.358       .  S
C535        C536   1.404       .  A
C535        C540   1.402       .  A
C535        F553   1.358       .  S
C536        C541   1.477       .  S
C536        C537   1.400       .  A
C537        C538   1.395       .  A
C537        F542   1.358       .  S
C538        C539   1.413       .  A
C538        F554   1.356       .  S
C539        C540   1.411       .  A
C540        F543   1.357       .  S
C541        C544   1.401       .  A
C541        C548   1.403       .  A
C544        C545   1.397       .  A
C544        F549   1.358       .  S
C545        C546   1.413       .  A
C545        F551   1.358       .  S
C546        C547   1.411       .  A
C547        C548   1.399       .  A
C547        F550   1.358       .  S
C548        F552   1.358       .  S
C555        C556   1.406       .  A
C555        C560   1.399       .  A
C555        F573   1.358       .  S
C556        C561   1.482       .  S
C556        C557   1.406       .  A
C557        C558   1.396       .  A
C557        F562   1.358       .  S
C558        C559   1.406       .  A
C558        F574   1.358       .  S
C559        C560   1.408       .  A
C560        F563   1.357       .  S
C561        C564   1.407       .  A
C561        C568   1.405       .  A
C564        C565   1.399       .  A
C564        F569   1.358       .  S
C565        C566   1.406       .  A
C565        F571   1.358       .  S
C566        C567   1.408       .  A
C567        C568   1.397       .  A
C567        F570   1.358       .  S
C568        F572   1.358       .  S
C575        C576   1.399       .  A
C575        C580   1.394       .  A
C575        F593   1.358       .  S
C576        C581   1.469       .  S
C576        C577   1.402       .  A
C577        C578   1.398       .  A
C577        F582   1.358       .  S
C578        C579   1.410       .  A
C578        F594   1.358       .  S
C579        C580   1.412       .  A
C580        F583   1.358       .  S
C581        C584   1.401       .  A
C581        C588   1.400       .  A
C584        C585   1.397       .  A
C584        F589   1.358       .  S
C585        C586   1.409       .  A
C585        F591   1.358       .  S
C586        C587   1.409       .  A
C587        C588   1.395       .  A
C587        F590   1.357       .  S
C588        F592   1.358       .  S
